final/Texas2k_series24_cases_with_dynamics/Texas2k_series24_case4_2024lowload/Texas2k_series24_case4_2024lowload.m
% Case saved by PowerWorld Simulator, version 23, build date October 25, 2023
% Case Information Header = 9 lines
% Texas2k_series24_case4_2024lowload
% This is a synthetic power system model that does NOT represent the actual grid. 
% It was developed at Texas A&M University and contains no CEII.
% [1] A.B. Birchfield, T. Xu, K.M. Gegner, K.S. Shetye, and T.J. Overbye,
%  "Grid Structural Characteristics as Validation Criteria for Synthetic Networks,"
%  IEEE Transactions on Power Systems, vol. 32, no. 4, pp. 3258-3265, July 2017.
% [2] J. Baek and A. B. Birchfield, “A tuning method for exciters and governors 
%  in realistic synthetic grids with dynamics,” 2023 North American Power 
%  Symposium (NAPS), Asheville, NC, USA, Oct. 2023, pp. 1-6.
function mpc = Texas2k_series24_case4_2024lowload
mpc.version = '2';
mpc.baseMVA =  100.00;

%% bus data 
mpc.bus = [
1001	1	27.02	5.89	0.00	0.00	1	0.9685433	12.226746	115.00	9	1.100	0.900	18.66	-0.00	0	0
1002	1	20.04	4.37	0.00	0.00	1	1.0253439	39.804985	115.00	9	1.100	0.900	18.66	0.00	0	0
1003	1	0.00	0.00	0.00	0.00	1	0.9931387	28.446865	115.00	9	1.100	0.900	18.66	-0.00	0	0
1004	2	0.00	0.00	0.00	0.00	1	0.9943006	19.985979	230.00	9	1.100	0.900	18.66	-0.00	0	0
1005	1	0.00	0.00	0.00	0.00	1	0.9959306	28.925686	115.00	9	1.100	0.900	18.66	-0.00	0	0
1006	2	0.00	0.00	0.00	0.00	1	1.0000001	30.006071	13.80	9	1.100	0.900	18.66	-0.00	0	0
1007	2	9.11	1.99	0.00	-0.89	1	1.0299570	44.754883	115.00	9	1.100	0.900	18.66	0.00	0	0
1008	1	0.00	0.00	0.00	0.00	1	0.9902387	30.962177	115.00	9	1.100	0.900	18.66	-0.00	0	0
1009	2	0.00	0.00	0.00	0.00	1	1.0000001	34.330514	13.80	9	1.100	0.900	18.66	-0.00	0	0
1010	1	0.00	0.00	0.00	2.67	1	1.0300001	39.786875	115.00	9	1.100	0.900	18.66	0.00	0	0
1011	2	0.00	0.00	0.00	0.00	1	1.0302179	41.539838	22.00	9	1.100	0.900	18.66	-0.00	0	0
1012	1	3.88	0.85	0.00	9.50	1	0.9551021	15.227688	115.00	9	1.100	0.900	18.66	-0.00	0	0
1013	1	37.99	8.28	0.00	0.00	1	0.9914950	28.159036	115.00	9	1.100	0.900	18.66	-0.00	0	0
1014	1	2.89	0.63	0.00	0.00	1	0.9912869	29.936011	115.00	9	1.100	0.900	18.66	-0.00	0	0
1015	1	9.76	2.13	0.00	0.00	1	1.0304306	41.038712	115.00	9	1.100	0.900	18.66	0.00	0	0
1016	2	3.76	0.82	0.00	30.00	1	1.0000001	34.909419	115.00	9	1.100	0.900	18.66	0.00	0	0
1017	1	23.85	5.20	0.00	0.00	1	0.9773336	18.152272	115.00	9	1.100	0.900	18.66	-0.00	0	0
1018	1	0.09	0.02	0.00	0.00	1	0.9879694	19.563532	115.00	9	1.100	0.900	18.66	-0.00	0	0
1019	1	80.31	17.50	0.00	142.98	1	0.9816741	14.879042	115.00	9	1.100	0.900	18.66	0.00	0	0
1020	1	0.00	0.00	0.00	76.73	1	0.9913508	23.732627	115.00	9	1.100	0.900	18.66	-0.00	0	0
1021	2	0.00	0.00	0.00	0.00	1	1.0000001	27.093318	13.80	9	1.100	0.900	18.66	-0.00	0	0
1022	2	0.00	0.00	0.00	0.00	1	0.9991779	29.682600	115.00	9	1.100	0.900	18.66	-0.00	0	0
1023	2	0.00	0.00	0.00	0.00	1	1.0100001	38.160633	13.80	9	1.100	0.900	18.66	0.00	0	0
1024	1	81.95	17.86	0.00	0.00	1	0.9917262	20.740356	115.00	9	1.100	0.900	18.66	-0.00	0	0
1025	1	0.00	0.00	0.00	0.00	1	0.9928969	25.311892	115.00	9	1.100	0.900	18.66	-0.00	0	0
1026	2	0.00	0.00	0.00	0.00	1	1.0000001	35.035292	13.80	9	1.100	0.900	18.66	0.00	0	0
1027	2	131.57	28.68	0.00	75.00	1	0.9918230	17.862921	115.00	9	1.100	0.900	18.66	0.00	0	0
1028	2	13.02	2.84	0.00	0.00	1	1.0000001	25.413866	115.00	9	1.100	0.900	18.66	-0.00	0	0
1029	2	108.14	23.57	0.00	40.00	1	1.0000001	18.824334	115.00	9	1.100	0.900	18.66	0.00	0	0
1030	2	32.02	6.98	0.00	0.00	1	1.0079645	36.450597	115.00	9	1.100	0.900	18.66	-0.00	0	0
1031	1	12.02	2.62	0.00	0.00	1	1.0025937	36.207308	115.00	9	1.100	0.900	18.66	-0.00	0	0
1032	2	0.00	0.00	0.00	0.00	1	0.9693578	29.132963	115.00	9	1.100	0.900	18.66	-0.00	0	0
1033	2	0.00	0.00	0.00	50.00	1	0.9731392	25.534707	230.00	9	1.100	0.900	18.66	-0.00	0	0
1034	1	0.00	0.00	0.00	0.00	1	0.9990582	31.512914	115.00	9	1.100	0.900	18.66	-0.00	0	0
1035	2	0.00	0.00	0.00	0.00	1	1.0000001	34.804703	13.80	9	1.100	0.900	18.66	0.00	0	0
1036	2	17.67	3.85	0.00	0.00	1	0.9829220	33.341646	115.00	9	1.100	0.900	18.66	-0.00	0	0
1037	2	132.91	28.97	0.00	0.00	1	0.9728638	16.118684	115.00	9	1.100	0.900	18.66	-0.00	0	0
1038	1	0.00	0.00	0.00	0.00	1	0.9941547	34.117622	115.00	9	1.100	0.900	18.66	-0.00	0	0
1039	2	0.00	0.00	0.00	0.00	1	1.0000001	39.592488	22.00	9	1.100	0.900	18.66	0.00	0	0
1040	2	57.67	12.57	0.00	0.00	1	1.0000001	23.502906	115.00	9	1.100	0.900	18.66	-0.00	0	0
1041	1	0.00	0.00	0.00	0.00	1	1.0011835	30.565232	115.00	9	1.100	0.900	18.66	-0.00	0	0
1042	2	0.00	0.00	0.00	0.00	1	1.0011835	30.565232	13.80	9	1.100	0.900	18.66	-0.00	0	0
1043	2	0.00	0.00	0.00	0.00	1	1.0000001	33.809684	13.80	9	1.100	0.900	18.66	0.00	0	0
1044	2	19.09	4.16	0.00	0.00	1	1.0000001	14.003578	115.00	9	1.100	0.900	18.66	-0.00	0	0
1045	1	128.13	27.93	0.00	0.00	1	0.9653472	13.386787	115.00	9	1.100	0.900	18.66	-0.00	0	0
1046	2	14.41	3.14	0.00	12.00	1	1.0000001	25.713319	115.00	9	1.100	0.900	18.66	-0.00	0	0
1047	1	0.00	0.00	0.00	0.00	1	0.9910666	24.233002	115.00	9	1.100	0.900	18.66	-0.00	0	0
1048	2	0.00	0.00	0.00	0.00	1	0.9910666	24.233002	18.00	9	1.100	0.900	18.66	-0.00	0	0
1049	2	0.00	0.00	0.00	0.00	1	0.9910666	24.233002	18.00	9	1.100	0.900	18.66	-0.00	0	0
1050	2	0.00	0.00	0.00	0.00	1	1.0000001	25.064697	18.00	9	1.100	0.900	18.66	0.00	0	0
1051	2	0.00	0.00	0.00	0.00	1	1.0000001	25.305676	18.00	9	1.100	0.900	18.66	0.00	0	0
1052	2	0.00	0.00	0.00	0.00	1	1.0000001	24.915230	18.00	9	1.100	0.900	18.66	-0.00	0	0
1053	2	0.00	0.00	0.00	0.00	1	0.9844746	22.024620	230.00	9	1.100	0.900	18.66	-0.00	0	0
1054	1	19.48	4.25	0.00	0.00	1	0.9952588	24.508658	115.00	9	1.100	0.900	18.66	-0.00	0	0
1055	2	5.17	1.13	0.00	0.00	1	1.0000001	29.326861	115.00	9	1.100	0.900	18.66	-0.00	0	0
1056	1	0.00	0.00	0.00	80.00	1	1.0122458	22.571382	115.00	9	1.100	0.900	18.66	0.00	0	0
1057	2	0.00	0.00	0.00	0.00	1	1.0122458	22.571382	18.00	9	1.100	0.900	18.66	0.00	0	0
1058	1	17.49	3.81	0.00	0.00	1	0.9930610	28.695112	115.00	9	1.100	0.900	18.66	-0.00	0	0
1059	2	0.00	0.00	0.00	0.00	1	0.9930610	28.695112	22.00	9	1.100	0.900	18.66	-0.00	0	0
1060	2	0.00	0.00	0.00	0.00	1	0.9930610	28.695112	22.00	9	1.100	0.900	18.66	-0.00	0	0
1061	2	0.00	0.00	0.00	0.00	1	1.0000001	27.702317	115.00	9	1.100	0.900	18.66	-0.00	0	0
1062	2	0.00	0.00	0.00	0.00	1	1.0100001	30.044163	13.80	9	1.100	0.900	18.66	-0.00	0	0
1063	2	0.00	0.00	0.00	0.00	1	1.0100001	30.777433	13.80	9	1.100	0.900	18.66	-0.00	0	0
1064	1	160.89	35.07	0.00	0.00	1	0.9599844	11.428159	115.00	9	1.100	0.900	18.66	-0.00	0	0
1065	1	0.00	0.00	0.00	0.00	1	1.0025386	30.560749	115.00	9	1.100	0.900	18.66	-0.00	0	0
1066	2	0.00	0.00	0.00	0.00	1	1.0000001	38.103180	13.80	9	1.100	0.900	18.66	0.00	0	0
1067	1	132.01	28.77	0.00	0.00	1	0.9989171	30.130877	115.00	9	1.100	0.900	18.66	-0.00	0	0
1068	1	77.22	16.83	0.00	0.00	1	0.9733048	31.165565	115.00	9	1.100	0.900	18.66	-0.00	0	0
1069	1	0.00	0.00	0.00	0.00	1	0.9973311	31.536443	115.00	9	1.100	0.900	18.66	-0.00	0	0
1070	2	0.00	0.00	0.00	0.00	1	1.0209361	36.226272	13.80	9	1.100	0.900	18.66	0.00	0	0
1071	1	118.90	25.91	0.00	0.00	1	0.9768344	13.063111	115.00	9	1.100	0.900	18.66	0.00	0	0
1072	2	0.00	0.00	0.00	0.00	1	1.0100001	14.521192	18.00	9	1.100	0.900	18.66	0.00	0	0
1073	2	0.00	0.00	0.00	0.00	1	1.0100001	15.619830	18.00	9	1.100	0.900	18.66	0.00	0	0
1074	2	0.00	0.00	0.00	0.00	1	1.0100001	15.268127	18.00	9	1.100	0.900	18.66	0.00	0	0
1075	2	0.00	0.00	0.00	0.00	1	1.0100001	14.826083	18.00	9	1.100	0.900	18.66	0.00	0	0
1076	2	0.00	0.00	0.00	0.00	1	0.9768344	13.063111	18.00	9	1.100	0.900	18.66	0.00	0	0
1077	2	0.00	0.00	0.00	0.00	1	0.9768344	13.063111	18.00	9	1.100	0.900	18.66	0.00	0	0
1078	2	0.00	0.00	0.00	0.00	1	1.0100001	14.755359	18.00	9	1.100	0.900	18.66	0.00	0	0
1079	2	0.00	0.00	0.00	0.00	1	0.9899172	-2.477877	500.00	9	1.100	0.900	18.66	0.00	0	0
1080	2	0.00	0.00	0.00	0.00	1	1.0100001	14.800478	18.00	9	1.100	0.900	18.66	0.00	0	0
1081	2	0.00	0.00	0.00	140.00	1	0.9780083	20.519899	230.00	9	1.100	0.900	18.66	0.00	0	0
1082	2	0.00	0.00	0.00	0.00	1	1.0000001	34.388092	115.00	9	1.100	0.900	18.66	-0.00	0	0
1083	2	51.93	11.32	0.00	26.15	1	1.0000001	37.117014	115.00	9	1.100	0.900	18.66	-0.00	0	0
1084	2	0.00	0.00	0.00	0.00	1	0.9967810	22.016064	115.00	9	1.100	0.900	18.66	-0.00	0	0
1085	2	27.69	6.03	0.00	0.00	1	1.0000001	27.527746	115.00	9	1.100	0.900	18.66	-0.00	0	0
1086	2	51.57	11.24	0.00	30.00	1	1.0125841	27.138040	115.00	9	1.100	0.900	18.66	0.00	0	0
1087	1	1.18	0.26	0.00	50.00	1	0.9932481	23.176552	115.00	9	1.100	0.900	18.66	0.00	0	0
1088	2	0.00	0.00	0.00	0.00	1	0.9975842	34.618095	115.00	9	1.100	0.900	18.66	0.00	0	0
1089	2	52.79	11.50	0.00	0.00	1	1.0000001	31.690485	115.00	9	1.100	0.900	18.66	-0.00	0	0
1090	2	0.00	0.00	0.00	0.00	1	1.0044197	22.798282	115.00	9	1.100	0.900	18.66	0.00	0	0
1091	1	15.11	3.29	0.00	0.00	1	0.9745136	27.137261	161.00	9	1.100	0.900	18.66	-0.00	0	0
2001	1	62.86	13.70	0.00	0.00	2	1.0219218	-30.923241	161.00	11	1.100	0.900	18.66	-0.00	0	0
2002	1	0.00	0.00	0.00	0.00	2	1.0287315	-29.141787	500.00	11	1.100	0.900	18.66	-0.00	0	0
2003	1	0.00	0.00	0.00	0.00	2	1.0265532	-30.845063	161.00	11	1.100	0.900	18.66	-0.00	0	0
2004	2	0.00	0.00	0.00	0.00	2	1.0287315	-29.141787	13.80	11	1.100	0.900	18.66	-0.00	0	0
2005	2	0.00	0.00	0.00	0.00	2	1.0287315	-29.141787	13.80	11	1.100	0.900	18.66	-0.00	0	0
2006	2	0.00	0.00	0.00	0.00	2	1.0287315	-29.141787	13.80	11	1.100	0.900	18.66	-0.00	0	0
2007	1	12.40	2.70	0.00	0.00	2	1.0245985	-30.032543	161.00	11	1.100	0.900	18.66	-0.00	0	0
2008	2	10.48	2.28	0.00	0.00	2	1.0034362	36.158950	161.00	10	1.100	0.900	18.66	-0.00	0	0
2009	1	50.88	11.09	0.00	120.00	2	0.9917537	2.608549	161.00	11	1.100	0.900	18.66	0.00	0	0
2010	2	73.85	16.09	0.00	100.00	2	1.0000001	25.405975	161.00	10	1.100	0.900	18.66	0.00	0	0
2011	2	0.00	0.00	0.00	0.00	2	1.0158604	21.770809	500.00	10	1.100	0.900	18.66	-0.00	0	0
2012	2	0.00	0.00	0.00	0.00	2	0.9940326	28.616015	161.00	10	1.100	0.900	18.66	-0.00	0	0
2013	2	0.00	0.00	0.00	0.00	2	1.0050144	24.366726	18.00	10	1.100	0.900	18.66	-0.00	0	0
2014	1	33.06	7.20	0.00	0.00	2	0.9966709	35.899692	161.00	10	1.100	0.900	18.66	-0.00	0	0
2015	1	6.09	1.33	0.00	0.00	2	0.9977079	-20.204454	161.00	11	1.100	0.900	18.66	-0.00	0	0
2016	2	90.05	19.63	0.00	0.00	2	1.0159488	-35.890299	161.00	11	1.100	0.900	18.66	0.00	0	0
2017	1	0.00	0.00	0.00	-34.27	2	1.0296178	16.708078	500.00	10	1.100	0.900	18.66	-0.00	0	0
2018	1	0.00	0.00	0.00	0.00	2	1.0044854	20.636988	161.00	10	1.100	0.900	18.66	-0.00	0	0
2019	2	0.00	0.00	0.00	0.00	2	1.0296178	16.708078	20.00	10	1.100	0.900	18.66	-0.00	0	0
2020	1	62.36	13.59	0.00	0.00	2	0.9734734	-3.414948	161.00	11	1.100	0.900	18.66	-0.00	0	0
2021	1	0.00	0.00	0.00	0.00	2	1.0344351	-28.005836	500.00	11	1.100	0.900	18.66	-0.00	0	0
2022	1	15.03	3.28	0.00	0.00	2	1.0306011	-29.545554	161.00	11	1.100	0.900	18.66	-0.00	0	0
2023	2	0.00	0.00	0.00	0.00	2	1.0344351	-28.005836	13.80	11	1.100	0.900	18.66	0.00	0	0
2024	2	0.00	0.00	0.00	0.00	2	1.0301907	-27.285546	13.80	11	1.100	0.900	18.66	0.00	0	0
2025	1	51.50	11.23	0.00	0.00	2	0.9707451	-3.529297	161.00	11	1.100	0.900	18.66	-0.00	0	0
2026	1	24.14	5.26	0.00	0.00	2	0.9954875	23.090511	161.00	10	1.100	0.900	18.66	-0.00	0	0
2027	1	4.62	1.01	0.00	0.00	2	1.0230325	-31.108679	161.00	11	1.100	0.900	18.66	-0.00	0	0
2028	1	18.51	4.03	0.00	0.00	2	0.9821809	-3.849181	161.00	11	1.100	0.900	18.66	-0.00	0	0
2029	2	4.16	0.91	0.00	0.00	2	1.0000001	37.165989	161.00	10	1.100	0.900	18.66	-0.00	0	0
2030	1	61.29	13.36	0.00	0.00	2	1.0103078	-32.417480	161.00	11	1.100	0.900	18.66	-0.00	0	0
2031	1	7.50	1.63	0.00	0.00	2	1.0002251	26.628746	161.00	10	1.100	0.900	18.66	-0.00	0	0
2032	1	4.36	0.95	0.00	0.00	2	1.0267803	-29.614179	161.00	11	1.100	0.900	18.66	-0.00	0	0
2033	1	17.64	3.85	0.00	0.00	2	1.0132838	-32.358776	161.00	11	1.100	0.900	18.66	-0.00	0	0
2034	1	6.94	1.51	0.00	0.00	2	1.0157776	-35.902459	161.00	11	1.100	0.900	18.66	-0.00	0	0
2035	2	6.09	1.33	0.00	0.00	2	1.0000001	32.738552	161.00	10	1.100	0.900	18.66	-0.00	0	0
2036	1	54.06	11.78	0.00	0.00	2	0.9765265	-1.484313	161.00	11	1.100	0.900	18.66	-0.00	0	0
2037	1	4.55	0.99	0.00	0.00	2	1.0058239	-20.195079	161.00	11	1.100	0.900	18.66	-0.00	0	0
2038	1	3.39	0.74	0.00	0.00	2	1.0261923	-30.630449	161.00	11	1.100	0.900	18.66	-0.00	0	0
2039	1	7.23	1.58	0.00	0.00	2	0.9879808	-18.853163	161.00	11	1.100	0.900	18.66	-0.00	0	0
2040	1	20.67	4.51	0.00	0.00	2	1.0285046	-30.139717	161.00	11	1.100	0.900	18.66	-0.00	0	0
2041	2	0.00	0.00	0.00	0.00	2	1.0000001	33.099577	161.00	10	1.100	0.900	18.66	-0.00	0	0
2042	2	0.00	0.00	0.00	0.00	2	1.0100001	36.051445	18.00	10	1.100	0.900	18.66	-0.00	0	0
2043	1	5.51	1.20	0.00	0.00	2	1.0157027	-35.930583	161.00	11	1.100	0.900	18.66	-0.00	0	0
2044	1	35.63	7.76	0.00	0.00	2	1.0037795	-25.797852	161.00	11	1.100	0.900	18.66	-0.00	0	0
2045	1	29.39	6.40	0.00	0.00	2	0.9747560	-3.579606	161.00	11	1.100	0.900	18.66	-0.00	0	0
2046	1	28.77	6.27	0.00	0.00	2	1.0162805	-35.797007	161.00	11	1.100	0.900	18.66	-0.00	0	0
2047	1	19.44	4.24	0.00	0.00	2	1.0242292	-31.795045	161.00	11	1.100	0.900	18.66	-0.00	0	0
2048	2	8.34	1.82	0.00	0.00	2	1.0000001	28.973250	161.00	10	1.100	0.900	18.66	-0.00	0	0
2049	2	15.04	3.28	0.00	0.00	2	1.0000001	11.280445	161.00	10	1.100	0.900	18.66	-0.00	0	0
2050	1	4.75	1.04	0.00	0.00	2	1.0177393	-32.121938	161.00	11	1.100	0.900	18.66	-0.00	0	0
2051	2	23.20	5.06	0.00	0.00	2	1.0000001	-10.456520	161.00	11	1.100	0.900	18.66	-0.00	0	0
2052	1	32.29	7.04	0.00	0.00	2	0.9921391	31.750792	161.00	10	1.100	0.900	18.66	-0.00	0	0
2053	1	37.87	8.25	0.00	0.00	2	0.9898100	-21.088345	161.00	11	1.100	0.900	18.66	-0.00	0	0
2054	1	0.00	0.00	0.00	0.00	2	0.9753083	-3.454453	500.00	11	1.100	0.900	18.66	-0.00	0	0
2055	1	64.51	14.06	0.00	0.00	2	0.9733042	-2.924138	161.00	11	1.100	0.900	18.66	-0.00	0	0
2056	2	0.00	0.00	0.00	0.00	2	0.9753083	-3.454453	18.00	11	1.100	0.900	18.66	-0.00	0	0
2057	2	0.00	0.00	0.00	0.00	2	0.9900001	-1.608922	18.00	11	1.100	0.900	18.66	-0.00	0	0
2058	1	0.00	0.00	0.00	0.00	2	0.9997506	31.881126	161.00	10	1.100	0.900	18.66	-0.00	0	0
2059	2	0.00	0.00	0.00	0.00	2	1.0000001	35.354552	13.80	10	1.100	0.900	18.66	-0.00	0	0
2060	1	4.93	1.08	0.00	0.00	2	1.0204799	-31.247741	161.00	11	1.100	0.900	18.66	-0.00	0	0
2061	1	0.00	0.00	0.00	0.00	2	0.9993539	16.907189	161.00	10	1.100	0.900	18.66	-0.00	0	0
2062	2	0.00	0.00	0.00	0.00	2	1.0118244	19.242600	18.00	10	1.100	0.900	18.66	0.00	0	0
2063	1	85.30	18.59	0.00	40.00	2	1.0187902	-35.372432	161.00	11	1.100	0.900	18.66	-0.00	0	0
2064	1	13.06	2.85	0.00	0.00	2	1.0251465	-30.458101	161.00	11	1.100	0.900	18.66	-0.00	0	0
2065	2	101.87	22.20	0.00	100.00	2	1.0017930	-22.145417	161.00	11	1.100	0.900	18.66	0.00	0	0
2066	1	9.25	2.02	0.00	0.00	2	0.9827800	25.040708	161.00	10	1.100	0.900	18.66	-0.00	0	0
2067	1	70.16	15.29	0.00	0.00	2	0.9705432	-3.947660	161.00	11	1.100	0.900	18.66	-0.00	0	0
2068	1	7.49	1.63	0.00	0.00	2	0.9868260	-3.276999	161.00	11	1.100	0.900	18.66	-0.00	0	0
2069	1	28.50	6.21	0.00	92.60	2	1.0300001	-34.275658	161.00	11	1.100	0.900	18.66	0.00	0	0
2070	1	0.00	0.00	0.00	0.00	2	0.9910942	-3.336295	161.00	11	1.100	0.900	18.66	-0.00	0	0
2071	2	0.00	0.00	0.00	0.00	2	1.0000001	0.366149	18.00	11	1.100	0.900	18.66	0.00	0	0
2072	1	12.62	2.75	0.00	0.00	2	1.0248793	-32.595029	161.00	11	1.100	0.900	18.66	0.00	0	0
2073	1	0.00	0.00	0.00	0.00	2	0.9804312	19.193051	161.00	10	1.100	0.900	18.66	-0.00	0	0
2074	1	0.00	0.00	0.00	0.00	2	0.9895608	21.623222	115.00	10	1.100	0.900	18.66	-0.00	0	0
2075	1	0.00	0.00	0.00	0.00	2	0.9895608	21.623222	115.00	10	1.100	0.900	18.66	-0.00	0	0
2076	2	0.00	0.00	0.00	0.00	2	0.9858711	20.165447	24.00	10	1.100	0.900	18.66	-0.00	0	0
2077	1	0.00	0.00	0.00	0.00	2	1.0131003	-17.517252	161.00	11	1.100	0.900	18.66	-0.00	0	0
2078	2	0.00	0.00	0.00	0.00	2	1.0200001	-14.186394	13.80	11	1.100	0.900	18.66	0.00	0	0
2079	1	5.82	1.27	0.00	0.00	2	1.0008862	26.669876	161.00	10	1.100	0.900	18.66	-0.00	0	0
2080	1	22.01	4.80	0.00	0.00	2	0.9985577	-12.923221	161.00	11	1.100	0.900	18.66	-0.00	0	0
2081	2	5.80	1.26	0.00	0.00	2	1.0255041	-30.169096	161.00	11	1.100	0.900	18.66	-0.00	0	0
2082	1	76.74	16.73	0.00	0.00	2	0.9800949	-0.341872	161.00	11	1.100	0.900	18.66	-0.00	0	0
2083	2	0.00	0.00	0.00	0.00	2	0.9949591	0.188722	20.00	11	1.100	0.900	18.66	0.00	0	0
2084	2	0.00	0.00	0.00	0.00	2	0.9800949	-0.341872	20.00	11	1.100	0.900	18.66	-0.00	0	0
2085	2	0.00	0.00	0.00	0.00	2	0.9800949	-0.341872	20.00	11	1.100	0.900	18.66	-0.00	0	0
2086	1	2.85	0.62	0.00	0.00	2	0.9910247	-16.585559	161.00	11	1.100	0.900	18.66	-0.00	0	0
2087	2	10.26	2.24	0.00	0.00	2	1.0000001	25.007524	161.00	10	1.100	0.900	18.66	-0.00	0	0
2088	1	0.00	0.00	0.00	0.00	2	0.9891525	-3.152826	161.00	11	1.100	0.900	18.66	-0.00	0	0
2089	2	0.00	0.00	0.00	0.00	2	1.0000001	0.476649	24.00	11	1.100	0.900	18.66	0.00	0	0
2090	1	3.15	0.69	0.00	0.00	2	1.0245268	-31.240996	161.00	11	1.100	0.900	18.66	-0.00	0	0
2091	2	22.16	4.83	0.00	0.00	2	1.0000001	30.496441	161.00	10	1.100	0.900	18.66	-0.00	0	0
2092	1	31.34	6.83	0.00	0.00	2	1.0198848	-33.695387	161.00	11	1.100	0.900	18.66	-0.00	0	0
2093	2	0.00	0.00	0.00	0.00	2	0.9992992	25.054526	161.00	10	1.100	0.900	18.66	-0.00	0	0
2094	2	0.00	0.00	0.00	0.00	2	1.0000001	25.709293	13.80	10	1.100	0.900	18.66	-0.00	0	0
2095	2	0.00	0.00	0.00	0.00	2	1.0000001	25.376973	13.80	10	1.100	0.900	18.66	-0.00	0	0
2096	1	0.00	0.00	0.00	0.00	2	1.0069193	15.057721	500.00	10	1.100	0.900	18.66	-0.00	0	0
2097	1	0.00	0.00	0.00	0.00	2	0.9996851	16.643467	230.00	10	1.100	0.900	18.66	-0.00	0	0
2098	1	0.00	0.00	0.00	0.00	2	0.9715663	25.651374	161.00	10	1.100	0.900	18.66	-0.00	0	0
2099	2	0.00	0.00	0.00	0.00	2	1.0076733	15.204616	18.00	10	1.100	0.900	18.66	-0.00	0	0
2100	2	0.00	0.00	0.00	0.00	2	1.0199397	17.703320	18.00	10	1.100	0.900	18.66	-0.00	0	0
2101	1	0.00	0.00	0.00	0.00	2	1.0259201	-29.177292	500.00	11	1.100	0.900	18.66	-0.00	0	0
2102	1	0.00	0.00	0.00	0.00	2	1.0204565	-29.699227	161.00	11	1.100	0.900	18.66	-0.00	0	0
2103	2	0.00	0.00	0.00	0.00	2	1.0259201	-29.177292	20.00	11	1.100	0.900	18.66	-0.00	0	0
2104	2	0.00	0.00	0.00	0.00	2	1.0259201	-29.177292	20.00	11	1.100	0.900	18.66	-0.00	0	0
2105	2	0.00	0.00	0.00	0.00	2	1.0259201	-29.177292	20.00	11	1.100	0.900	18.66	-0.00	0	0
2106	1	18.72	4.08	0.00	0.00	2	1.0108813	-32.623146	161.00	11	1.100	0.900	18.66	-0.00	0	0
2107	1	96.40	21.01	0.00	0.00	2	1.0151904	-30.286976	161.00	11	1.100	0.900	18.66	-0.00	0	0
2108	1	2.79	0.61	0.00	0.00	2	0.9977064	11.693659	161.00	10	1.100	0.900	18.66	0.00	0	0
2109	2	43.95	9.58	0.00	0.00	2	1.0000001	0.385101	161.00	11	1.100	0.900	18.66	-0.00	0	0
...
];

%% generator data 
mpc.gen = [
1004	158.25	44.94	44.94	-30.38	1.0100	253.20	1	158.25	158.25	0.00	0.00	0.00	0.00	0.00	0.00	0	0	0	0	211.0000	0	0	0	0
1006	25.73	4.72	7.31	-4.94	1.0000	41.16	1	25.73	25.73	0.00	0.00	0.00	0.00	0.00	0.00	0	0	0	0	34.3000	0	0	0	0
1007	216.59	0.00	0.00	0.00	1.0000	601.65	1	216.59	216.59	0.00	0.00	0.00	0.00	0.00	0.00	0	0	0	0	0.0000	0	0	0	0
1009	61.87	9.14	17.57	-11.88	1.0000	99.00	1	61.87	61.87	0.00	0.00	0.00	0.00	0.00	0.00	0	0	0	0	82.5000	0	0	0	0
1011	10.00	0.00	0.00	0.00	1.0000	12.00	1	10.00	10.00	0.00	0.00	0.00	0.00	0.00	0.00	0	0	0	0	10.0000	0	0	0	0
1016	439.47	-45.24	381.18	-381.18	1.0000	1220.75	1	439.47	439.47	0.00	0.00	0.00	0.00	0.00	0.00	0	0	0	0	0.0000	0	0	0	0
1016	135.00	-45.24	117.09	-117.09	1.0000	375.00	1	135.00	135.00	0.00	0.00	0.00	0.00	0.00	0.00	0	0	0	0	0.0000	0	0	0	0
1021	149.63	20.25	42.49	-28.73	1.0000	239.40	1	149.63	149.63	0.00	0.00	0.00	0.00	0.00	0.00	0	0	0	0	199.5000	0	0	0	0
1022	119.79	0.00	0.00	0.00	1.0000	332.75	1	119.79	119.79	0.00	0.00	0.00	0.00	0.00	0.00	0	0	0	0	0.0000	0	0	0	0
1023	135.00	25.81	38.34	-25.92	1.0100	216.00	1	135.00	135.00	0.00	0.00	0.00	0.00	0.00	0.00	0	0	0	0	180.0000	0	0	0	0
1023	119.79	0.00	0.00	0.00	1.0100	332.75	1	119.79	119.79	0.00	0.00	0.00	0.00	0.00	0.00	0	0	0	0	0.0000	0	0	0	0
1026	93.15	9.67	26.45	-17.88	1.0000	149.04	1	93.15	93.15	0.00	0.00	0.00	0.00	0.00	0.00	0	0	0	0	124.2000	0	0	0	0
1027	1.62	1.41	1.41	-1.41	1.0000	4.50	1	1.62	1.62	0.00	0.00	0.00	0.00	0.00	0.00	0	0	0	0	0.0000	0	0	0	0
1028	253.75	22.04	220.10	-220.10	1.0000	704.88	1	253.75	253.75	0.00	0.00	0.00	0.00	0.00	0.00	0	0	0	0	0.0000	0	0	0	0
1029	63.13	-3.68	54.76	-54.76	1.0000	175.38	1	63.13	63.13	0.00	0.00	0.00	0.00	0.00	0.00	0	0	0	0	0.0000	0	0	0	0
1030	22.50	0.00	0.00	0.00	1.0000	62.50	1	22.50	22.50	0.00	0.00	0.00	0.00	0.00	0.00	0	0	0	0	0.0000	0	0	0	0
1032	209.14	0.00	0.00	0.00	1.0000	580.94	1	209.14	209.14	0.00	0.00	0.00	0.00	0.00	0.00	0	0	0	0	0.0000	0	0	0	0
1033	208.50	59.21	59.21	-40.03	1.0000	333.60	1	208.50	208.50	0.00	0.00	0.00	0.00	0.00	0.00	0	0	0	0	278.0000	0	0	0	0
1033	209.14	0.00	0.00	0.00	1.0000	580.94	1	209.14	209.14	0.00	0.00	0.00	0.00	0.00	0.00	0	0	0	0	0.0000	0	0	0	0
1035	67.50	-0.43	19.17	-12.96	1.0000	108.00	1	67.50	67.50	0.00	0.00	0.00	0.00	0.00	0.00	0	0	0	0	90.0000	0	0	0	0
1036	117.90	0.00	0.00	0.00	1.0000	327.50	1	117.90	117.90	0.00	0.00	0.00	0.00	0.00	0.00	0	0	0	0	0.0000	0	0	0	0
1037	81.00	0.00	0.00	0.00	1.0000	225.00	1	81.00	81.00	0.00	0.00	0.00	0.00	0.00	0.00	0	0	0	0	0.0000	0	0	0	0
1039	110.63	9.49	31.42	-21.24	1.0000	177.00	1	110.63	110.63	0.00	0.00	0.00	0.00	0.00	0.00	0	0	0	0	147.5000	0	0	0	0
1040	72.32	-25.16	62.72	-62.72	1.0000	200.88	1	72.32	72.32	0.00	0.00	0.00	0.00	0.00	0.00	0	0	0	0	0.0000	0	0	0	0
1040	487.76	0.00	0.00	0.00	1.0000	1354.88	1	487.76	487.76	0.00	0.00	0.00	0.00	0.00	0.00	0	0	0	0	0.0000	0	0	0	0
1042	0.00	0.00	25.96	-17.55	1.0000	146.28	0	121.90	36.57	0.00	0.00	0.00	0.00	0.00	0.00	0	0	0	0	121.9000	0	0	0	0
1043	44.10	-0.70	12.52	-8.47	1.0000	70.56	1	44.10	44.10	0.00	0.00	0.00	0.00	0.00	0.00	0	0	0	0	58.8000	0	0	0	0
1044	136.08	71.84	118.03	-118.03	1.0000	378.00	1	136.08	136.08	0.00	0.00	0.00	0.00	0.00	0.00	0	0	0	0	0.0000	0	0	0	0
1046	686.02	41.55	595.03	-595.03	1.0000	1905.63	1	686.02	686.02	0.00	0.00	0.00	0.00	0.00	0.00	0	0	0	0	0.0000	0	0	0	0
1048	0.00	0.00	165.53	-36.10	1.0000	390.24	0	325.20	97.56	0.00	0.00	0.00	0.00	0.00	0.00	0	0	0	0	325.2000	0	0	0	0
1049	0.00	0.00	165.53	-36.10	1.0000	390.24	0	325.20	97.56	0.00	0.00	0.00	0.00	0.00	0.00	0	0	0	0	325.2000	0	0	0	0
1050	29.49	17.25	45.50	-9.92	1.0000	107.28	1	89.40	26.82	0.00	0.00	0.00	0.00	0.00	0.00	0	0	0	0	89.4000	0	0	0	0
1051	29.49	12.91	45.50	-9.92	1.0000	107.28	1	89.40	26.82	0.00	0.00	0.00	0.00	0.00	0.00	0	0	0	0	89.4000	0	0	0	0
1052	29.49	20.49	45.50	-9.92	1.0000	107.28	1	89.40	26.82	0.00	0.00	0.00	0.00	0.00	0.00	0	0	0	0	89.4000	0	0	0	0
1053	0.00	0.00	91.01	-19.85	1.0000	214.56	0	178.80	53.64	0.00	0.00	0.00	0.00	0.00	0.00	0	0	0	0	178.8000	0	0	0	0
1055	111.33	29.12	96.56	-96.56	1.0000	309.25	1	111.33	111.33	0.00	0.00	0.00	0.00	0.00	0.00	0	0	0	0	0.0000	0	0	0	0
1057	0.00	0.00	25.56	-17.28	1.0000	144.00	0	120.00	36.00	0.00	0.00	0.00	0.00	0.00	0.00	0	0	0	0	120.0000	0	0	0	0
1059	0.00	0.00	2.85	-0.62	1.0400	6.72	0	5.60	1.68	0.00	0.00	0.00	0.00	0.00	0.00	0	0	0	0	5.6000	0	0	0	0
1060	0.00	0.00	1.02	-0.22	1.0400	2.40	0	2.00	0.60	0.00	0.00	0.00	0.00	0.00	0.00	0	0	0	0	2.0000	0	0	0	0
1061	52.50	3.93	45.54	-45.54	1.0000	145.83	1	52.50	52.50	0.00	0.00	0.00	0.00	0.00	0.00	0	0	0	0	0.0000	0	0	0	0
1062	0.00	0.00	0.00	0.00	1.0100	1.80	0	1.50	0.45	0.00	0.00	0.00	0.00	0.00	0.00	0	0	0	0	1.5000	0	0	0	0
1062	52.50	11.08	45.54	-45.54	1.0100	145.83	1	52.50	52.50	0.00	0.00	0.00	0.00	0.00	0.00	0	0	0	0	0.0000	0	0	0	0
1063	0.00	0.00	0.00	0.00	1.0100	276.00	0	230.00	69.00	0.00	0.00	0.00	0.00	0.00	0.00	0	0	0	0	230.0000	0	0	0	0
1063	52.50	8.24	45.54	-45.54	1.0100	145.83	1	52.50	52.50	0.00	0.00	0.00	0.00	0.00	0.00	0	0	0	0	0.0000	0	0	0	0
1066	106.88	0.57	30.35	-20.52	1.0000	171.00	1	106.88	106.88	0.00	0.00	0.00	0.00	0.00	0.00	0	0	0	0	142.5000	0	0	0	0
1070	120.38	34.19	34.19	-23.11	1.0400	192.60	1	120.38	120.38	0.00	0.00	0.00	0.00	0.00	0.00	0	0	0	0	160.5000	0	0	0	0
1072	63.37	75.17	97.80	-21.33	1.0100	230.56	1	192.13	57.64	0.00	0.00	0.00	0.00	0.00	0.00	0	0	0	0	192.1300	0	0	0	0
1073	63.37	46.16	97.80	-21.33	1.0100	230.56	1	192.13	57.64	0.00	0.00	0.00	0.00	0.00	0.00	0	0	0	0	192.1300	0	0	0	0
1074	63.37	52.05	97.80	-21.33	1.0100	230.56	1	192.13	57.64	0.00	0.00	0.00	0.00	0.00	0.00	0	0	0	0	192.1300	0	0	0	0
1075	63.37	65.78	97.80	-21.33	1.0100	230.56	1	192.13	57.64	0.00	0.00	0.00	0.00	0.00	0.00	0	0	0	0	192.1300	0	0	0	0
1076	0.00	0.00	97.80	-21.33	1.0100	230.56	0	192.13	57.64	0.00	0.00	0.00	0.00	0.00	0.00	0	0	0	0	192.1300	0	0	0	0
1077	0.00	0.00	97.80	-21.33	1.0100	230.56	0	192.13	57.64	0.00	0.00	0.00	0.00	0.00	0.00	0	0	0	0	192.1300	0	0	0	0
1078	31.50	34.67	48.61	-10.60	1.0100	114.60	1	95.50	28.65	0.00	0.00	0.00	0.00	0.00	0.00	0	0	0	0	95.5000	0	0	0	0
1079	31.50	48.61	48.61	-10.60	1.0100	114.60	1	95.50	28.65	0.00	0.00	0.00	0.00	0.00	0.00	0	0	0	0	95.5000	0	0	0	0
1080	31.50	31.72	48.61	-10.60	1.0100	114.60	1	95.50	28.65	0.00	0.00	0.00	0.00	0.00	0.00	0	0	0	0	95.5000	0	0	0	0
1081	0.00	0.00	145.83	-31.80	1.0100	343.80	0	286.50	85.95	0.00	0.00	0.00	0.00	0.00	0.00	0	0	0	0	286.5000	0	0	0	0
1082	112.50	-7.03	31.95	-21.60	1.0000	180.00	1	112.50	112.50	0.00	0.00	0.00	0.00	0.00	0.00	0	0	0	0	150.0000	0	0	0	0
1083	86.26	-73.67	74.82	-74.82	1.0000	239.63	1	86.26	86.26	0.00	0.00	0.00	0.00	0.00	0.00	0	0	0	0	0.0000	0	0	0	0
1083	718.04	0.00	0.00	0.00	1.0000	1994.56	1	718.04	718.04	0.00	0.00	0.00	0.00	0.00	0.00	0	0	0	0	0.0000	0	0	0	0
1084	86.62	24.60	24.60	-16.63	1.0400	138.60	1	86.62	86.62	0.00	0.00	0.00	0.00	0.00	0.00	0	0	0	0	115.5000	0	0	0	0
1085	68.67	-12.42	59.56	-59.56	1.0000	190.75	1	68.67	68.67	0.00	0.00	0.00	0.00	0.00	0.00	0	0	0	0	0.0000	0	0	0	0
1085	113.85	0.00	0.00	0.00	1.0000	316.24	1	113.85	113.85	0.00	0.00	0.00	0.00	0.00	0.00	0	0	0	0	0.0000	0	0	0	0
1086	45.00	0.00	0.00	0.00	1.0000	125.00	1	45.00	45.00	0.00	0.00	0.00	0.00	0.00	0.00	0	0	0	0	0.0000	0	0	0	0
1088	56.25	15.97	15.97	-10.80	1.0000	90.00	1	56.25	56.25	0.00	0.00	0.00	0.00	0.00	0.00	0	0	0	0	75.0000	0	0	0	0
1089	95.04	-29.41	82.43	-82.43	1.0000	264.00	1	95.04	95.04	0.00	0.00	0.00	0.00	0.00	0.00	0	0	0	0	0.0000	0	0	0	0
1089	68.22	0.00	0.00	0.00	1.0000	189.50	1	68.22	68.22	0.00	0.00	0.00	0.00	0.00	0.00	0	0	0	0	0.0000	0	0	0	0
1090	88.69	32.48	32.48	-21.96	1.0200	183.00	1	152.50	45.75	0.00	0.00	0.00	0.00	0.00	0.00	0	0	0	0	152.5000	0	0	0	0
1090	20.94	7.67	7.67	-5.18	1.0200	43.20	1	36.00	10.80	0.00	0.00	0.00	0.00	0.00	0.00	0	0	0	0	36.0000	0	0	0	0
2004	0.00	0.00	199.43	-43.49	1.0200	470.16	0	391.80	117.54	0.00	0.00	0.00	0.00	0.00	0.00	0	0	0	0	391.8000	0	0	0	0
2005	0.00	0.00	199.43	-43.49	1.0200	470.16	0	391.80	117.54	0.00	0.00	0.00	0.00	0.00	0.00	0	0	0	0	391.8000	0	0	0	0
2006	0.00	0.00	199.43	-43.49	1.0200	470.16	0	391.80	117.54	0.00	0.00	0.00	0.00	0.00	0.00	0	0	0	0	391.8000	0	0	0	0
2008	108.00	0.00	0.00	0.00	1.0000	300.00	1	108.00	108.00	0.00	0.00	0.00	0.00	0.00	0.00	0	0	0	0	0.0000	0	0	0	0
2010	157.63	-85.52	136.73	-136.73	1.0000	437.88	1	157.63	157.63	0.00	0.00	0.00	0.00	0.00	0.00	0	0	0	0	0.0000	0	0	0	0
2011	8.63	-7.48	7.48	-7.48	1.0000	23.96	1	8.63	8.63	0.00	0.00	0.00	0.00	0.00	0.00	0	0	0	0	0.0000	0	0	0	0
2012	8.63	7.48	7.48	7.48	0.9940	23.96	1	8.63	8.63	0.00	0.00	0.00	0.00	0.00	0.00	0	0	0	0	0.0000	0	0	0	0
2013	150.45	-28.89	42.73	-28.89	1.0000	240.72	1	150.45	150.45	0.00	0.00	0.00	0.00	0.00	0.00	0	0	0	0	200.6000	0	0	0	0
2013	8.63	-7.48	7.48	-7.48	1.0000	23.96	1	8.63	8.63	0.00	0.00	0.00	0.00	0.00	0.00	0	0	0	0	0.0000	0	0	0	0
2016	9.13	0.00	0.00	0.00	1.0000	25.38	1	9.13	9.13	0.00	0.00	0.00	0.00	0.00	0.00	0	0	0	0	0.0000	0	0	0	0
2019	0.00	0.00	46.43	-31.39	1.0400	261.60	0	218.00	65.40	0.00	0.00	0.00	0.00	0.00	0.00	0	0	0	0	218.0000	0	0	0	0
2023	0.00	0.00	42.42	-9.25	1.0200	100.00	0	83.33	25.00	0.00	0.00	0.00	0.00	0.00	0.00	0	0	0	0	83.3300	0	0	0	0
2024	54.97	-18.50	84.83	-18.50	1.0200	200.00	1	166.67	50.00	0.00	0.00	0.00	0.00	0.00	0.00	0	0	0	0	166.6700	0	0	0	0
2029	67.45	-11.83	58.51	-58.51	1.0000	187.38	1	67.45	67.45	0.00	0.00	0.00	0.00	0.00	0.00	0	0	0	0	0.0000	0	0	0	0
2029	432.77	-11.83	375.36	-375.36	1.0000	1202.13	1	432.77	432.77	0.00	0.00	0.00	0.00	0.00	0.00	0	0	0	0	0.0000	0	0	0	0
2029	225.90	0.00	0.00	0.00	1.0000	627.50	1	225.90	225.90	0.00	0.00	0.00	0.00	0.00	0.00	0	0	0	0	0.0000	0	0	0	0
2035	361.98	-2.80	313.97	-313.97	1.0000	1005.50	1	361.98	361.98	0.00	0.00	0.00	0.00	0.00	0.00	0	0	0	0	0.0000	0	0	0	0
2041	94.52	-42.13	81.99	-81.99	1.0000	262.56	1	94.52	94.52	0.00	0.00	0.00	0.00	0.00	0.00	0	0	0	0	0.0000	0	0	0	0
2041	127.15	-42.13	110.28	-110.28	1.0000	353.19	1	127.15	127.15	0.00	0.00	0.00	0.00	0.00	0.00	0	0	0	0	0.0000	0	0	0	0
2041	51.84	-42.13	44.96	-44.96	1.0000	144.00	1	51.84	51.84	0.00	0.00	0.00	0.00	0.00	0.00	0	0	0	0	0.0000	0	0	0	0
2042	59.70	15.93	16.95	-11.46	1.0100	95.52	1	59.70	59.70	0.00	0.00	0.00	0.00	0.00	0.00	0	0	0	0	79.6000	0	0	0	0
2042	94.52	15.93	81.99	-81.99	1.0100	262.56	1	94.52	94.52	0.00	0.00	0.00	0.00	0.00	0.00	0	0	0	0	0.0000	0	0	0	0
2042	127.15	15.93	110.28	-110.28	1.0100	353.19	1	127.15	127.15	0.00	0.00	0.00	0.00	0.00	0.00	0	0	0	0	0.0000	0	0	0	0
2042	51.84	15.93	44.96	-44.96	1.0100	144.00	1	51.84	51.84	0.00	0.00	0.00	0.00	0.00	0.00	0	0	0	0	0.0000	0	0	0	0
2048	111.28	-1.87	96.52	-96.52	1.0000	309.13	1	111.28	111.28	0.00	0.00	0.00	0.00	0.00	0.00	0	0	0	0	0.0000	0	0	0	0
2049	490.46	41.91	425.40	-425.40	1.0000	1362.38	1	490.46	490.46	0.00	0.00	0.00	0.00	0.00	0.00	0	0	0	0	0.0000	0	0	0	0
2051	91.84	35.64	79.66	-79.66	1.0000	255.13	1	91.84	91.84	0.00	0.00	0.00	0.00	0.00	0.00	0	0	0	0	0.0000	0	0	0	0
2056	0.00	0.00	2.80	-0.73	0.9900	7.20	0	6.00	1.80	0.00	0.00	0.00	0.00	0.00	0.00	0	0	0	0	6.0000	0	0	0	0
2057	237.48	109.40	335.52	-87.84	0.9900	864.00	1	720.00	216.00	0.00	0.00	0.00	0.00	0.00	0.00	0	0	0	0	720.0000	0	0	0	0
2059	60.00	-1.13	17.04	-11.52	1.0000	96.00	1	60.00	60.00	0.00	0.00	0.00	0.00	0.00	0.00	0	0	0	0	80.0000	0	0	0	0
2062	101.55	28.84	28.84	-19.50	1.0200	162.48	1	101.55	101.55	0.00	0.00	0.00	0.00	0.00	0.00	0	0	0	0	135.4000	0	0	0	0
2065	141.61	-122.83	122.83	-122.83	1.0000	393.38	1	141.61	141.61	0.00	0.00	0.00	0.00	0.00	0.00	0	0	0	0	0.0000	0	0	0	0
2065	29.25	0.00	0.00	0.00	1.0000	81.25	1	29.25	29.25	0.00	0.00	0.00	0.00	0.00	0.00	0	0	0	0	0.0000	0	0	0	0
2071	112.50	16.68	31.95	-21.60	1.0000	180.00	1	112.50	112.50	0.00	0.00	0.00	0.00	0.00	0.00	0	0	0	0	150.0000	0	0	0	0
2076	22.50	6.39	6.39	-4.32	1.0400	36.00	1	22.50	22.50	0.00	0.00	0.00	0.00	0.00	0.00	0	0	0	0	30.0000	0	0	0	0
2078	84.38	9.94	23.96	-16.20	1.0200	135.00	1	84.38	84.38	0.00	0.00	0.00	0.00	0.00	0.00	0	0	0	0	112.5000	0	0	0	0
2081	98.82	0.00	0.00	0.00	1.0000	274.50	1	98.82	98.82	0.00	0.00	0.00	0.00	0.00	0.00	0	0	0	0	0.0000	0	0	0	0
2083	6.60	10.18	10.18	-2.22	1.0200	24.00	1	20.00	6.00	0.00	0.00	0.00	0.00	0.00	0.00	0	0	0	0	20.0000	0	0	0	0
2084	0.00	0.00	10.18	-2.22	1.0200	24.00	0	20.00	6.00	0.00	0.00	0.00	0.00	0.00	0.00	0	0	0	0	20.0000	0	0	0	0
2085	0.00	0.00	20.36	-4.44	1.0200	48.00	0	40.00	12.00	0.00	0.00	0.00	0.00	0.00	0.00	0	0	0	0	40.0000	0	0	0	0
2087	13.50	7.69	11.71	-11.71	1.0000	37.50	1	13.50	13.50	0.00	0.00	0.00	0.00	0.00	0.00	0	0	0	0	0.0000	0	0	0	0
2087	205.15	0.00	0.00	0.00	1.0000	569.85	1	205.15	205.15	0.00	0.00	0.00	0.00	0.00	0.00	0	0	0	0	0.0000	0	0	0	0
2089	50.70	9.29	14.40	-9.73	1.0000	81.12	1	50.70	50.70	0.00	0.00	0.00	0.00	0.00	0.00	0	0	0	0	67.6000	0	0	0	0
2091	148.59	-26.79	128.88	-128.88	1.0000	412.75	1	148.59	148.59	0.00	0.00	0.00	0.00	0.00	0.00	0	0	0	0	0.0000	0	0	0	0
2093	11.06	9.59	9.59	-9.59	1.0000	30.71	1	11.06	11.06	0.00	0.00	0.00	0.00	0.00	0.00	0	0	0	0	0.0000	0	0	0	0
2094	0.00	0.00	2.13	-1.44	1.0000	12.00	0	10.00	3.00	0.00	0.00	0.00	0.00	0.00	0.00	0	0	0	0	10.0000	0	0	0	0
2094	11.06	0.56	9.59	-9.59	1.0000	30.71	1	11.06	11.06	0.00	0.00	0.00	0.00	0.00	0.00	0	0	0	0	0.0000	0	0	0	0
2095	0.00	0.00	16.93	-11.45	1.0000	95.40	0	79.50	23.85	0.00	0.00	0.00	0.00	0.00	0.00	0	0	0	0	79.5000	0	0	0	0
2095	11.06	1.08	9.59	-9.59	1.0000	30.71	1	11.06	11.06	0.00	0.00	0.00	0.00	0.00	0.00	0	0	0	0	0.0000	0	0	0	0
2099	7.50	2.13	2.13	-1.44	1.0200	12.00	1	7.50	7.50	0.00	0.00	0.00	0.00	0.00	0.00	0	0	0	0	10.0000	0	0	0	0
2100	112.50	31.95	31.95	-21.60	1.0200	180.00	1	112.50	112.50	0.00	0.00	0.00	0.00	0.00	0.00	0	0	0	0	150.0000	0	0	0	0
2103	0.00	0.00	136.28	-29.72	1.0000	321.28	0	267.73	80.32	0.00	0.00	0.00	0.00	0.00	0.00	0	0	0	0	267.7300	0	0	0	0
2104	0.00	0.00	136.28	-29.72	1.0000	321.28	0	267.73	80.32	0.00	0.00	0.00	0.00	0.00	0.00	0	0	0	0	267.7300	0	0	0	0
2105	0.00	0.00	136.28	-29.72	1.0000	321.28	0	267.73	80.32	0.00	0.00	0.00	0.00	0.00	0.00	0	0	0	0	267.7300	0	0	0	0
2109	94.59	71.68	82.04	-82.04	1.0000	262.75	1	94.59	94.59	0.00	0.00	0.00	0.00	0.00	0.00	0	0	0	0	0.0000	0	0	0	0
2113	71.45	0.00	0.00	0.00	1.0000	198.48	1	71.45	71.45	0.00	0.00	0.00	0.00	0.00	0.00	0	0	0	0	0.0000	0	0	0	0
2114	71.45	0.00	0.00	0.00	1.0000	198.48	1	71.45	71.45	0.00	0.00	0.00	0.00	0.00	0.00	0	0	0	0	0.0000	0	0	0	0
2115	0.00	0.00	94.02	-20.50	1.0000	221.66	0	184.72	55.41	0.00	0.00	0.00	0.00	0.00	0.00	0	0	0	0	184.7200	0	0	0	0
2115	71.45	0.00	0.00	0.00	1.0000	198.48	1	71.45	71.45	0.00	0.00	0.00	0.00	0.00	0.00	0	0	0	0	0.0000	0	0	0	0
2116	0.00	0.00	94.02	-20.50	1.0000	221.66	0	184.72	55.41	0.00	0.00	0.00	0.00	0.00	0.00	0	0	0	0	184.7200	0	0	0	0
2116	71.45	0.00	0.00	0.00	1.0000	198.48	1	71.45	71.45	0.00	0.00	0.00	0.00	0.00	0.00	0	0	0	0	0.0000	0	0	0	0
2117	0.00	0.00	94.02	-20.50	1.0000	221.66	0	184.72	55.41	0.00	0.00	0.00	0.00	0.00	0.00	0	0	0	0	184.7200	0	0	0	0
2117	71.45	0.00	0.00	0.00	1.0000	198.48	1	71.45	71.45	0.00	0.00	0.00	0.00	0.00	0.00	0	0	0	0	0.0000	0	0	0	0
2118	0.00	0.00	94.02	-20.50	1.0000	221.66	0	184.72	55.41	0.00	0.00	0.00	0.00	0.00	0.00	0	0	0	0	184.7200	0	0	0	0
2118	71.45	0.00	0.00	0.00	1.0000	198.48	1	71.45	71.45	0.00	0.00	0.00	0.00	0.00	0.00	0	0	0	0	0.0000	0	0	0	0
2119	0.00	0.00	94.02	-20.50	1.0000	221.66	0	184.72	55.41	0.00	0.00	0.00	0.00	0.00	0.00	0	0	0	0	184.7200	0	0	0	0
2119	71.45	0.00	0.00	0.00	1.0000	198.48	1	71.45	71.45	0.00	0.00	0.00	0.00	0.00	0.00	0	0	0	0	0.0000	0	0	0	0
2120	0.00	0.00	94.02	-20.50	1.0100	221.66	0	184.72	55.41	0.00	0.00	0.00	0.00	0.00	0.00	0	0	0	0	184.7200	0	0	0	0
2120	71.45	0.00	0.00	0.00	1.0100	198.48	1	71.45	71.45	0.00	0.00	0.00	0.00	0.00	0.00	0	0	0	0	0.0000	0	0	0	0
2123	136.28	-22.94	38.70	-26.16	1.0000	218.04	1	136.28	136.28	0.00	0.00	0.00	0.00	0.00	0.00	0	0	0	0	181.7000	0	0	0	0
2123	220.99	-22.94	191.68	-191.68	1.0000	613.88	1	220.99	220.99	0.00	0.00	0.00	0.00	0.00	0.00	0	0	0	0	0.0000	0	0	0	0
2127	216.45	61.47	61.47	-41.56	1.0400	346.32	1	216.45	216.45	0.00	0.00	0.00	0.00	0.00	0.00	0	0	0	0	288.6000	0	0	0	0
2130	118.17	-38.94	102.50	-102.50	1.0000	328.25	1	118.17	118.17	0.00	0.00	0.00	0.00	0.00	0.00	0	0	0	0	0.0000	0	0	0	0
2130	51.06	0.00	0.00	0.00	1.0000	141.83	1	51.06	51.06	0.00	0.00	0.00	0.00	0.00	0.00	0	0	0	0	0.0000	0	0	0	0
2131	118.17	-5.88	102.50	-102.50	1.0000	328.25	1	118.17	118.17	0.00	0.00	0.00	0.00	0.00	0.00	0	0	0	0	0.0000	0	0	0	0
2131	51.06	0.00	0.00	0.00	1.0000	141.83	1	51.06	51.06	0.00	0.00	0.00	0.00	0.00	0.00	0	0	0	0	0.0000	0	0	0	0
2132	118.17	-6.44	102.50	-102.50	1.0000	328.25	1	118.17	118.17	0.00	0.00	0.00	0.00	0.00	0.00	0	0	0	0	0.0000	0	0	0	0
2132	51.06	0.00	0.00	0.00	1.0000	141.83	1	51.06	51.06	0.00	0.00	0.00	0.00	0.00	0.00	0	0	0	0	0.0000	0	0	0	0
3004	28.13	0.37	7.99	-5.40	1.0000	45.00	1	28.13	28.13	0.00	0.00	0.00	0.00	0.00	0.00	0	0	0	0	37.5000	0	0	0	0
3017	127.13	36.10	36.10	-24.41	1.0100	203.40	1	127.13	127.13	0.00	0.00	0.00	0.00	0.00	0.00	0	0	0	0	169.5000	0	0	0	0
3020	112.50	31.95	31.95	-21.60	1.0300	180.00	1	112.50	112.50	0.00	0.00	0.00	0.00	0.00	0.00	0	0	0	0	150.0000	0	0	0	0
3024	89.78	77.87	77.87	-77.87	1.0000	249.38	1	89.78	89.78	0.00	0.00	0.00	0.00	0.00	0.00	0	0	0	0	0.0000	0	0	0	0
3028	150.00	42.60	42.60	-28.80	1.0400	240.00	1	150.00	150.00	0.00	0.00	0.00	0.00	0.00	0.00	0	0	0	0	200.0000	0	0	0	0
3034	97.87	27.80	27.80	-18.79	1.0300	156.60	1	97.87	97.87	0.00	0.00	0.00	0.00	0.00	0.00	0	0	0	0	130.5000	0	0	0	0
3039	156.75	44.52	44.52	-30.10	1.0400	250.80	1	156.75	156.75	0.00	0.00	0.00	0.00	0.00	0.00	0	0	0	0	209.0000	0	0	0	0
3041	33.79	29.30	29.30	-29.30	1.0000	93.85	1	33.79	33.79	0.00	0.00	0.00	0.00	0.00	0.00	0	0	0	0	0.0000	0	0	0	0
3042	33.79	29.30	29.30	-29.30	1.0000	93.85	1	33.79	33.79	0.00	0.00	0.00	0.00	0.00	0.00	0	0	0	0	0.0000	0	0	0	0
3043	0.00	0.00	0.66	-0.14	1.0400	1.56	0	1.30	0.39	0.00	0.00	0.00	0.00	0.00	0.00	0	0	0	0	1.3000	0	0	0	0
3043	33.79	29.30	29.30	-29.30	1.0400	93.85	1	33.79	33.79	0.00	0.00	0.00	0.00	0.00	0.00	0	0	0	0	0.0000	0	0	0	0
3044	0.00	0.00	45.50	-9.92	1.0400	107.28	0	89.40	26.82	0.00	0.00	0.00	0.00	0.00	0.00	0	0	0	0	89.4000	0	0	0	0
3044	33.79	29.30	29.30	-29.30	1.0400	93.85	1	33.79	33.79	0.00	0.00	0.00	0.00	0.00	0.00	0	0	0	0	0.0000	0	0	0	0
3045	0.00	0.00	227.52	-49.62	1.0400	536.40	0	447.00	134.10	0.00	0.00	0.00	0.00	0.00	0.00	0	0	0	0	447.0000	0	0	0	0
3045	33.79	29.30	29.30	-29.30	1.0400	93.85	1	33.79	33.79	0.00	0.00	0.00	0.00	0.00	0.00	0	0	0	0	0.0000	0	0	0	0
3048	180.75	51.33	51.33	-34.70	1.0400	289.20	1	180.75	180.75	0.00	0.00	0.00	0.00	0.00	0.00	0	0	0	0	241.0000	0	0	0	0
3049	90.72	0.00	0.00	0.00	1.0000	252.00	1	90.72	90.72	0.00	0.00	0.00	0.00	0.00	0.00	0	0	0	0	0.0000	0	0	0	0
3050	33.59	29.14	29.14	-29.14	1.0000	93.31	1	33.59	33.59	0.00	0.00	0.00	0.00	0.00	0.00	0	0	0	0	0.0000	0	0	0	0
3051	33.59	29.14	29.14	-29.14	1.0000	93.31	1	33.59	33.59	0.00	0.00	0.00	0.00	0.00	0.00	0	0	0	0	0.0000	0	0	0	0
3055	183.88	52.22	52.22	-35.30	1.0400	294.20	1	183.88	183.88	0.00	0.00	0.00	0.00	0.00	0.00	0	0	0	0	245.1700	0	0	0	0
3056	183.88	52.22	52.22	-35.30	1.0400	294.20	1	183.88	183.88	0.00	0.00	0.00	0.00	0.00	0.00	0	0	0	0	245.1700	0	0	0	0
3057	183.88	52.22	52.22	-35.30	1.0400	294.20	1	183.88	183.88	0.00	0.00	0.00	0.00	0.00	0.00	0	0	0	0	245.1700	0	0	0	0
3060	124.22	35.28	35.28	-23.85	1.0400	198.75	1	124.22	124.22	0.00	0.00	0.00	0.00	0.00	0.00	0	0	0	0	165.6300	0	0	0	0
3061	124.22	35.28	35.28	-23.85	1.0400	198.75	1	124.22	124.22	0.00	0.00	0.00	0.00	0.00	0.00	0	0	0	0	165.6300	0	0	0	0
3062	124.22	35.28	35.28	-23.85	1.0400	198.75	1	124.22	124.22	0.00	0.00	0.00	0.00	0.00	0.00	0	0	0	0	165.6300	0	0	0	0
3063	124.22	35.28	35.28	-23.85	1.0400	198.75	1	124.22	124.22	0.00	0.00	0.00	0.00	0.00	0.00	0	0	0	0	165.6300	0	0	0	0
3065	60.37	1.94	17.15	-11.59	1.0000	96.60	1	60.37	60.37	0.00	0.00	0.00	0.00	0.00	0.00	0	0	0	0	80.5000	0	0	0	0
3066	152.91	131.97	132.63	-132.63	1.0000	424.75	1	152.91	152.91	0.00	0.00	0.00	0.00	0.00	0.00	0	0	0	0	0.0000	0	0	0	0
3068	112.50	31.95	31.95	-21.60	1.0400	180.00	1	112.50	112.50	0.00	0.00	0.00	0.00	0.00	0.00	0	0	0	0	150.0000	0	0	0	0
3071	127.65	-9.77	36.25	-24.51	1.0000	204.24	1	127.65	127.65	0.00	0.00	0.00	0.00	0.00	0.00	0	0	0	0	170.2000	0	0	0	0
3074	74.85	-1.97	21.26	-14.37	1.0000	119.76	1	74.85	74.85	0.00	0.00	0.00	0.00	0.00	0.00	0	0	0	0	99.8000	0	0	0	0
3075	3.38	0.00	0.00	0.00	1.0000	9.38	1	3.38	3.38	0.00	0.00	0.00	0.00	0.00	0.00	0	0	0	0	0.0000	0	0	0	0
3076	71.68	0.00	0.00	0.00	1.0000	199.13	1	71.68	71.68	0.00	0.00	0.00	0.00	0.00	0.00	0	0	0	0	0.0000	0	0	0	0
3081	186.75	53.04	53.04	-35.86	1.0400	298.80	1	186.75	186.75	0.00	0.00	0.00	0.00	0.00	0.00	0	0	0	0	249.0000	0	0	0	0
3084	174.37	22.11	49.52	-33.48	1.0000	279.00	1	174.37	174.37	0.00	0.00	0.00	0.00	0.00	0.00	0	0	0	0	232.5000	0	0	0	0
3086	56.25	15.97	15.97	-10.80	1.0000	90.00	1	56.25	56.25	0.00	0.00	0.00	0.00	0.00	0.00	0	0	0	0	75.0000	0	0	0	0
3087	0.00	0.00	15.97	-10.80	1.0000	90.00	0	75.00	22.50	0.00	0.00	0.00	0.00	0.00	0.00	0	0	0	0	75.0000	0	0	0	0
3092	150.00	42.60	42.60	-28.80	1.0400	240.00	1	150.00	150.00	0.00	0.00	0.00	0.00	0.00	0.00	0	0	0	0	200.0000	0	0	0	0
3095	90.45	25.69	25.69	-17.37	1.0400	144.72	1	90.45	90.45	0.00	0.00	0.00	0.00	0.00	0.00	0	0	0	0	120.6000	0	0	0	0
3098	120.00	34.08	34.08	-23.04	1.0400	192.00	1	120.00	120.00	0.00	0.00	0.00	0.00	0.00	0.00	0	0	0	0	160.0000	0	0	0	0
3105	0.00	0.00	17.07	-0.74	1.0000	46.72	0	44.50	0.00	0.00	0.00	0.00	0.00	0.00	0.00	0	0	0	0	15.0000	0	0	0	0
3106	0.00	0.00	62.48	-2.69	1.0000	170.94	0	162.80	0.00	0.00	0.00	0.00	0.00	0.00	0.00	0	0	0	0	54.9000	0	0	0	0
3110	63.00	17.89	17.89	-12.10	1.0400	100.80	1	63.00	63.00	0.00	0.00	0.00	0.00	0.00	0.00	0	0	0	0	84.0000	0	0	0	0
3112	56.10	11.40	15.93	-10.77	1.0000	89.76	1	56.10	56.10	0.00	0.00	0.00	0.00	0.00	0.00	0	0	0	0	74.8000	0	0	0	0
3113	56.10	12.08	15.93	-10.77	1.0000	89.76	1	56.10	56.10	0.00	0.00	0.00	0.00	0.00	0.00	0	0	0	0	74.8000	0	0	0	0
3114	4.50	3.90	3.90	-3.90	1.0000	12.50	1	4.50	4.50	0.00	0.00	0.00	0.00	0.00	0.00	0	0	0	0	0.0000	0	0	0	0
3115	287.60	7.79	249.45	-249.45	1.0000	798.88	1	287.60	287.60	0.00	0.00	0.00	0.00	0.00	0.00	0	0	0	0	0.0000	0	0	0	0
3117	47.25	-2.40	13.42	-9.07	1.0000	75.60	1	47.25	47.25	0.00	0.00	0.00	0.00	0.00	0.00	0	0	0	0	63.0000	0	0	0	0
3118	90.00	-9.97	25.56	-17.28	1.0000	144.00	1	90.00	90.00	0.00	0.00	0.00	0.00	0.00	0.00	0	0	0	0	120.0000	0	0	0	0
3120	29.70	0.00	0.00	0.00	1.0000	47.52	1	29.70	29.70	0.00	0.00	0.00	0.00	0.00	0.00	0	0	0	0	39.6000	0	0	0	0
3122	147.75	2.79	41.96	-28.37	1.0000	236.40	1	147.75	147.75	0.00	0.00	0.00	0.00	0.00	0.00	0	0	0	0	197.0000	0	0	0	0
3126	45.00	0.00	0.00	0.00	1.0000	125.00	1	45.00	45.00	0.00	0.00	0.00	0.00	0.00	0.00	0	0	0	0	0.0000	0	0	0	0
3127	101.25	-19.44	28.76	-19.44	1.0000	162.00	1	101.25	101.25	0.00	0.00	0.00	0.00	0.00	0.00	0	0	0	0	135.0000	0	0	0	0
3127	225.09	-60.73	195.23	-195.23	1.0000	625.25	1	225.09	225.09	0.00	0.00	0.00	0.00	0.00	0.00	0	0	0	0	0.0000	0	0	0	0
...
];

%% generator cost data
mpc.gencost = [
2	0	0	4	0.0000	0.000	0.000	0.00
2	0	0	4	0.0000	0.000	0.000	0.00
2	0	0	4	0.0000	0.010	10.000	0.00
2	0	0	4	0.0000	0.000	0.000	0.00
2	0	0	4	0.0000	0.000	0.000	0.00
2	0	0	4	0.0000	0.010	10.000	0.00
2	0	0	4	0.0000	0.010	10.000	0.00
2	0	0	4	0.0000	0.000	0.000	0.00
2	0	0	4	0.0000	0.010	10.000	0.00
2	0	0	4	0.0000	0.000	0.000	0.00
2	0	0	4	0.0000	0.010	10.000	0.00
2	0	0	4	0.0000	0.000	0.000	0.00
2	0	0	4	0.0000	0.010	10.000	0.00
2	0	0	4	0.0000	0.010	10.000	0.00
2	0	0	4	0.0000	0.010	10.000	0.00
2	0	0	4	0.0000	0.010	10.000	0.00
2	0	0	4	0.0000	0.010	10.000	0.00
2	0	0	4	0.0000	0.000	0.000	0.00
2	0	0	4	0.0000	0.010	10.000	0.00
2	0	0	4	0.0000	0.000	0.000	0.00
2	0	0	4	0.0000	0.010	10.000	0.00
2	0	0	4	0.0000	0.010	10.000	0.00
2	0	0	4	0.0000	0.000	0.000	0.00
2	0	0	4	0.0000	0.010	10.000	0.00
2	0	0	4	0.0000	0.010	10.000	0.00
2	0	0	4	0.0000	0.000	0.000	0.00
2	0	0	4	0.0000	0.000	0.000	0.00
2	0	0	4	0.0000	0.010	10.000	0.00
2	0	0	4	0.0000	0.010	10.000	0.00
2	0	0	4	0.0000	0.001	18.641	1087.80
2	0	0	4	0.0000	0.001	18.641	1087.80
2	0	0	4	0.0000	0.001	17.464	734.10
2	0	0	4	0.0000	0.001	17.464	734.10
2	0	0	4	0.0000	0.001	17.464	734.10
2	0	0	4	0.0000	0.001	17.910	868.20
2	0	0	4	0.0000	0.010	10.000	0.00
2	0	0	4	0.0000	0.000	0.000	0.00
2	0	0	4	0.0000	0.001	17.046	608.40
2	0	0	4	0.0000	0.001	17.028	603.00
2	0	0	4	0.0000	0.010	10.000	0.00
2	0	0	4	0.0000	0.000	0.000	0.00
2	0	0	4	0.0000	0.010	10.000	0.00
2	0	0	4	0.0000	0.000	0.000	0.00
2	0	0	4	0.0000	0.010	10.000	0.00
2	0	0	4	0.0000	0.000	0.000	0.00
2	0	0	4	0.0000	0.000	0.000	0.00
2	0	0	4	0.0000	0.001	17.977	888.20
2	0	0	4	0.0000	0.001	17.977	888.20
2	0	0	4	0.0000	0.001	17.977	888.20
2	0	0	4	0.0000	0.001	17.977	888.20
2	0	0	4	0.0000	0.001	17.977	888.20
2	0	0	4	0.0000	0.001	17.977	888.20
2	0	0	4	0.0000	0.001	17.495	743.25
2	0	0	4	0.0000	0.001	17.495	743.25
2	0	0	4	0.0000	0.001	17.495	743.25
2	0	0	4	0.0000	0.001	18.448	1029.75
2	0	0	4	0.0000	0.000	0.000	0.00
2	0	0	4	0.0000	0.010	10.000	0.00
2	0	0	4	0.0000	0.010	10.000	0.00
2	0	0	4	0.0000	0.000	0.000	0.00
2	0	0	4	0.0000	0.010	10.000	0.00
2	0	0	4	0.0000	0.010	10.000	0.00
2	0	0	4	0.0000	0.010	10.000	0.00
2	0	0	4	0.0000	0.000	0.000	0.00
2	0	0	4	0.0000	0.010	10.000	0.00
2	0	0	4	0.0000	0.010	10.000	0.00
2	0	0	4	0.0000	0.000	0.000	0.00
2	0	0	4	0.0000	0.000	0.000	0.00
2	0	0	4	0.0000	0.002	27.494	1187.70
2	0	0	4	0.0000	0.002	27.494	1187.70
2	0	0	4	0.0000	0.002	27.494	1187.70
2	0	0	4	0.0000	0.010	10.000	0.00
2	0	0	4	0.0000	0.010	10.000	0.00
2	0	0	4	0.0000	0.010	10.000	0.00
2	0	0	4	0.0000	0.010	10.000	0.00
2	0	0	4	0.0000	0.000	0.000	0.00
2	0	0	4	0.0000	0.010	10.000	0.00
2	0	0	4	0.0000	0.010	10.000	0.00
2	0	0	4	0.0000	0.000	0.000	0.00
2	0	0	4	0.0000	0.001	16.989	724.99
2	0	0	4	0.0000	0.001	17.394	850.01
2	0	0	4	0.0000	0.010	10.000	0.00
2	0	0	4	0.0000	0.010	10.000	0.00
2	0	0	4	0.0000	0.010	10.000	0.00
2	0	0	4	0.0000	0.010	10.000	0.00
2	0	0	4	0.0000	0.010	10.000	0.00
2	0	0	4	0.0000	0.010	10.000	0.00
2	0	0	4	0.0000	0.010	10.000	0.00
2	0	0	4	0.0000	0.000	0.000	0.00
2	0	0	4	0.0000	0.010	10.000	0.00
2	0	0	4	0.0000	0.010	10.000	0.00
2	0	0	4	0.0000	0.010	10.000	0.00
2	0	0	4	0.0000	0.010	10.000	0.00
2	0	0	4	0.0000	0.010	10.000	0.00
2	0	0	4	0.0000	0.010	10.000	0.00
2	0	0	4	0.0000	0.002	17.268	236.16
2	0	0	4	0.0000	0.002	17.268	1398.51
2	0	0	4	0.0000	0.000	0.000	0.00
2	0	0	4	0.0000	0.000	0.000	0.00
2	0	0	4	0.0000	0.010	10.000	0.00
2	0	0	4	0.0000	0.010	10.000	0.00
2	0	0	4	0.0000	0.000	0.000	0.00
2	0	0	4	0.0000	0.000	0.000	0.00
2	0	0	4	0.0000	0.000	0.000	0.00
2	0	0	4	0.0000	0.010	10.000	0.00
2	0	0	4	0.0000	0.001	16.033	630.00
2	0	0	4	0.0000	0.001	16.033	630.00
2	0	0	4	0.0000	0.001	16.126	660.00
2	0	0	4	0.0000	0.010	10.000	0.00
2	0	0	4	0.0000	0.010	10.000	0.00
2	0	0	4	0.0000	0.000	0.000	0.00
2	0	0	4	0.0000	0.010	10.000	0.00
2	0	0	4	0.0000	0.010	10.000	0.00
2	0	0	4	0.0000	0.000	0.000	0.00
2	0	0	4	0.0000	0.010	10.000	0.00
2	0	0	4	0.0000	0.000	0.000	0.00
2	0	0	4	0.0000	0.010	10.000	0.00
2	0	0	4	0.0000	0.000	0.000	0.00
2	0	0	4	0.0000	0.000	0.000	0.00
2	0	0	4	0.0000	0.002	26.597	1001.59
2	0	0	4	0.0000	0.002	26.597	1001.59
2	0	0	4	0.0000	0.002	26.597	1001.59
2	0	0	4	0.0000	0.010	10.000	0.00
2	0	0	4	0.0000	0.010	10.000	0.00
2	0	0	4	0.0000	0.010	10.000	0.00
2	0	0	4	0.0000	0.001	17.482	877.08
2	0	0	4	0.0000	0.010	10.000	0.00
2	0	0	4	0.0000	0.001	17.482	877.08
2	0	0	4	0.0000	0.010	10.000	0.00
2	0	0	4	0.0000	0.001	17.482	877.08
2	0	0	4	0.0000	0.010	10.000	0.00
2	0	0	4	0.0000	0.001	17.482	877.08
2	0	0	4	0.0000	0.010	10.000	0.00
2	0	0	4	0.0000	0.001	17.482	877.08
2	0	0	4	0.0000	0.010	10.000	0.00
2	0	0	4	0.0000	0.001	17.482	877.08
2	0	0	4	0.0000	0.010	10.000	0.00
2	0	0	4	0.0000	0.000	0.000	0.00
2	0	0	4	0.0000	0.010	10.000	0.00
2	0	0	4	0.0000	0.000	0.000	0.00
2	0	0	4	0.0000	0.010	10.000	0.00
2	0	0	4	0.0000	0.010	10.000	0.00
2	0	0	4	0.0000	0.010	10.000	0.00
2	0	0	4	0.0000	0.010	10.000	0.00
2	0	0	4	0.0000	0.010	10.000	0.00
2	0	0	4	0.0000	0.010	10.000	0.00
2	0	0	4	0.0000	0.000	0.000	0.00
2	0	0	4	0.0000	0.000	0.000	0.00
2	0	0	4	0.0000	0.000	0.000	0.00
2	0	0	4	0.0000	0.010	10.000	0.00
2	0	0	4	0.0000	0.000	0.000	0.00
2	0	0	4	0.0000	0.000	0.000	0.00
2	0	0	4	0.0000	0.000	0.000	0.00
2	0	0	4	0.0000	0.010	10.000	0.00
2	0	0	4	0.0000	0.010	10.000	0.00
2	0	0	4	0.0000	0.002	19.197	601.95
2	0	0	4	0.0000	0.010	10.000	0.00
2	0	0	4	0.0000	0.002	19.693	734.10
2	0	0	4	0.0000	0.010	10.000	0.00
2	0	0	4	0.0000	0.002	21.704	1365.86
2	0	0	4	0.0000	0.010	10.000	0.00
2	0	0	4	0.0000	0.000	0.000	0.00
2	0	0	4	0.0000	0.010	10.000	0.00
2	0	0	4	0.0000	0.010	10.000	0.00
2	0	0	4	0.0000	0.010	10.000	0.00
2	0	0	4	0.0000	0.000	0.000	0.00
2	0	0	4	0.0000	0.000	0.000	0.00
2	0	0	4	0.0000	0.000	0.000	0.00
2	0	0	4	0.0000	0.000	0.000	0.00
2	0	0	4	0.0000	0.000	0.000	0.00
2	0	0	4	0.0000	0.000	0.000	0.00
2	0	0	4	0.0000	0.000	0.000	0.00
2	0	0	4	0.0000	0.000	0.000	0.00
2	0	0	4	0.0000	0.010	10.000	0.00
2	0	0	4	0.0000	0.000	0.000	0.00
2	0	0	4	0.0000	0.000	0.000	0.00
2	0	0	4	0.0000	0.000	0.000	0.00
2	0	0	4	0.0000	0.010	10.000	0.00
2	0	0	4	0.0000	0.010	10.000	0.00
2	0	0	4	0.0000	0.000	0.000	0.00
2	0	0	4	0.0000	0.000	0.000	0.00
2	0	0	4	0.0000	0.000	0.000	0.00
2	0	0	4	0.0000	0.000	0.000	0.00
2	0	0	4	0.0000	0.000	0.000	0.00
2	0	0	4	0.0000	0.000	0.000	0.00
2	0	0	4	0.0000	0.000	0.000	0.00
2	0	0	4	0.0000	0.000	0.000	0.00
2	0	0	4	0.0000	0.000	0.000	0.00
2	0	0	4	0.0000	0.000	0.000	0.00
2	0	0	4	0.0000	0.000	0.000	0.00
2	0	0	4	0.0000	0.000	0.000	0.00
2	0	0	4	0.0000	0.010	10.000	0.00
2	0	0	4	0.0000	0.010	10.000	0.00
2	0	0	4	0.0000	0.000	0.000	0.00
2	0	0	4	0.0000	0.000	0.000	0.00
2	0	0	4	0.0000	0.000	0.000	0.00
2	0	0	4	0.0000	0.000	0.000	0.00
2	0	0	4	0.0000	0.010	10.000	0.00
2	0	0	4	0.0000	0.000	0.000	0.00
2	0	0	4	0.0000	0.010	10.000	0.00
...
];

%% branch data
mpc.branch = [
1001	1064	0.005240	0.035800	0.00609	221.00	0.00	0.00	0.00000	0.000	1	0.00	0.00	38.79	17.44	-38.69	-17.32	0	0	0	0
1001	1064	0.005240	0.035800	0.00609	221.00	0.00	0.00	0.00000	0.000	1	0.00	0.00	38.79	17.44	-38.69	-17.32	0	0	0	0
1001	1071	0.004350	0.028080	0.00536	221.00	0.00	0.00	0.00000	0.000	1	0.00	0.00	-52.30	-20.39	52.45	20.82	0	0	0	0
1001	1071	0.004350	0.028080	0.00536	221.00	0.00	0.00	0.00000	0.000	1	0.00	0.00	-52.30	-20.39	52.45	20.82	0	0	0	0
1002	1007	0.077760	0.466930	0.06336	98.00	0.00	0.00	0.00000	0.000	1	0.00	0.00	-19.02	-0.33	19.29	-4.71	0	0	0	0
1010	1002	0.055520	0.135700	0.01777	98.00	0.00	0.00	0.00000	0.000	1	0.00	0.00	1.03	2.17	-1.02	-4.03	0	0	0	0
1004	1003	0.004500	0.115820	0.00000	250.00	0.00	0.00	1.00000	0.000	1	0.00	0.00	-124.86	15.13	125.58	3.40	0	0	0	0
1004	1003	0.004500	0.115820	0.00000	250.00	0.00	0.00	1.00000	0.000	1	0.00	0.00	-124.86	15.13	125.58	3.40	0	0	0	0
1004	1003	0.004500	0.115820	0.00000	250.00	0.00	0.00	1.00000	0.000	1	0.00	0.00	-124.86	15.13	125.58	3.40	0	0	0	0
1022	1003	0.004850	0.020120	0.00341	221.00	0.00	0.00	0.00000	0.000	1	0.00	0.00	107.62	5.03	-107.05	-3.03	0	0	0	0
1022	1003	0.004850	0.020120	0.00341	221.00	0.00	0.00	0.00000	0.000	1	0.00	0.00	107.62	5.03	-107.05	-3.03	0	0	0	0
1055	1003	0.015740	0.037820	0.00513	98.00	0.00	0.00	0.00000	0.000	1	0.00	0.00	40.92	1.16	-40.66	-1.04	0	0	0	0
1055	1003	0.015740	0.037820	0.00513	98.00	0.00	0.00	0.00000	0.000	1	0.00	0.00	40.92	1.16	-40.66	-1.04	0	0	0	0
1055	1003	0.015740	0.037820	0.00513	98.00	0.00	0.00	0.00000	0.000	1	0.00	0.00	40.92	1.16	-40.66	-1.04	0	0	0	0
1055	1003	0.015740	0.037820	0.00513	98.00	0.00	0.00	0.00000	0.000	1	0.00	0.00	40.92	1.16	-40.66	-1.04	0	0	0	0
1004	3133	0.004200	0.030000	0.05500	523.00	0.00	0.00	0.00000	0.000	1	0.00	0.00	266.41	-0.22	-263.40	16.37	0	0	0	0
1004	3133	0.004200	0.030000	0.05500	523.00	0.00	0.00	0.00000	0.000	1	0.00	0.00	266.41	-0.22	-263.40	16.37	0	0	0	0
1006	1005	0.006020	0.147070	0.00000	42.00	0.00	0.00	1.00000	0.000	1	0.00	0.00	12.87	2.36	-12.85	-2.11	0	0	0	0
1006	1005	0.006020	0.147070	0.00000	42.00	0.00	0.00	1.00000	0.000	1	0.00	0.00	12.87	2.36	-12.85	-2.11	0	0	0	0
1025	1005	0.018420	0.082100	0.01204	149.00	0.00	0.00	0.00000	0.000	1	0.00	0.00	-72.55	14.41	73.58	-11.03	0	0	0	0
1025	1005	0.018420	0.082100	0.01204	149.00	0.00	0.00	0.00000	0.000	1	0.00	0.00	-72.55	14.41	73.58	-11.03	0	0	0	0
1025	1005	0.018420	0.082100	0.01204	149.00	0.00	0.00	0.00000	0.000	1	0.00	0.00	-72.55	14.41	73.58	-11.03	0	0	0	0
1025	1005	0.018420	0.082100	0.01204	149.00	0.00	0.00	0.00000	0.000	1	0.00	0.00	-72.55	14.41	73.58	-11.03	0	0	0	0
1025	1005	0.018420	0.082100	0.01204	149.00	0.00	0.00	0.00000	0.000	1	0.00	0.00	-72.55	14.41	73.58	-11.03	0	0	0	0
1005	1061	0.005990	0.024840	0.00422	221.00	0.00	0.00	0.00000	0.000	1	0.00	0.00	77.39	-34.27	-76.96	35.64	0	0	0	0
1005	1061	0.005990	0.024840	0.00422	221.00	0.00	0.00	0.00000	0.000	1	0.00	0.00	77.39	-34.27	-76.96	35.64	0	0	0	0
1067	1005	0.017110	0.041810	0.00548	98.00	0.00	0.00	0.00000	0.000	1	0.00	0.00	45.55	-11.25	-45.18	11.63	0	0	0	0
1067	1005	0.017110	0.041810	0.00548	98.00	0.00	0.00	0.00000	0.000	1	0.00	0.00	45.55	-11.25	-45.18	11.63	0	0	0	0
1067	1005	0.017110	0.041810	0.00548	98.00	0.00	0.00	0.00000	0.000	1	0.00	0.00	45.55	-11.25	-45.18	11.63	0	0	0	0
1067	1005	0.017110	0.041810	0.00548	98.00	0.00	0.00	0.00000	0.000	1	0.00	0.00	45.55	-11.25	-45.18	11.63	0	0	0	0
1067	1005	0.017110	0.041810	0.00548	98.00	0.00	0.00	0.00000	0.000	1	0.00	0.00	45.55	-11.25	-45.18	11.63	0	0	0	0
1067	1005	0.017110	0.041810	0.00548	98.00	0.00	0.00	0.00000	0.000	1	0.00	0.00	45.55	-11.25	-45.18	11.63	0	0	0	0
1067	1005	0.017110	0.041810	0.00548	98.00	0.00	0.00	0.00000	0.000	1	0.00	0.00	45.55	-11.25	-45.18	11.63	0	0	0	0
1067	1005	0.017110	0.041810	0.00548	98.00	0.00	0.00	0.00000	0.000	1	0.00	0.00	45.55	-11.25	-45.18	11.63	0	0	0	0
1067	1005	0.017110	0.041810	0.00548	98.00	0.00	0.00	0.00000	0.000	1	0.00	0.00	45.55	-11.25	-45.18	11.63	0	0	0	0
1067	1005	0.017110	0.041810	0.00548	98.00	0.00	0.00	0.00000	0.000	1	0.00	0.00	45.55	-11.25	-45.18	11.63	0	0	0	0
1067	1005	0.017110	0.041810	0.00548	98.00	0.00	0.00	0.00000	0.000	1	0.00	0.00	45.55	-11.25	-45.18	11.63	0	0	0	0
1007	1015	0.062240	0.373750	0.05072	98.00	0.00	0.00	0.00000	0.000	1	0.00	0.00	17.98	-5.22	-17.79	1.00	0	0	0	0
1031	1007	0.048030	0.274340	0.04123	98.00	0.00	0.00	0.00000	0.000	1	0.00	0.00	-55.27	1.78	56.74	2.33	0	0	0	0
1031	1007	0.048030	0.274340	0.04123	98.00	0.00	0.00	0.00000	0.000	1	0.00	0.00	-55.27	1.78	56.74	2.33	0	0	0	0
1031	1007	0.048030	0.274340	0.04123	98.00	0.00	0.00	0.00000	0.000	1	0.00	0.00	-55.27	1.78	56.74	2.33	0	0	0	0
1009	1008	0.004550	0.094710	0.00000	120.00	0.00	0.00	1.00000	0.000	1	0.00	0.00	61.87	9.14	-61.69	-5.44	0	0	0	0
1009	1008	0.004550	0.094710	0.00000	120.00	0.00	0.00	1.00000	0.000	0	0.00	0.00	0.00	0.00	0.00	0.00	0	0	0	0
1008	1032	0.045010	0.110020	0.01441	98.00	0.00	0.00	0.00000	0.000	1	0.00	0.00	30.60	6.01	-30.15	-6.30	0	0	0	0
1008	1032	0.045010	0.110020	0.01441	98.00	0.00	0.00	0.00000	0.000	1	0.00	0.00	30.60	6.01	-30.15	-6.30	0	0	0	0
1008	1032	0.045010	0.110020	0.01441	98.00	0.00	0.00	0.00000	0.000	1	0.00	0.00	30.60	6.01	-30.15	-6.30	0	0	0	0
1008	1032	0.045010	0.110020	0.01441	98.00	0.00	0.00	0.00000	0.000	0	0.00	0.00	0.00	0.00	0.00	0.00	0	0	0	0
1008	1069	0.008300	0.036280	0.00553	149.00	0.00	0.00	0.00000	0.000	1	0.00	0.00	-30.10	-12.61	30.19	12.45	0	0	0	0
1008	1069	0.008300	0.036280	0.00553	149.00	0.00	0.00	0.00000	0.000	0	0.00	0.00	0.00	0.00	0.00	0.00	0	0	0	0
1011	1010	0.007210	0.324600	0.00000	46.00	0.00	0.00	1.00000	0.000	1	0.00	0.00	10.00	0.00	-9.99	0.31	0	0	0	0
1010	1015	0.047030	0.282430	0.03833	98.00	0.00	0.00	0.00000	0.000	1	0.00	0.00	-8.00	-0.77	8.03	-3.13	0	0	0	0
1010	1030	0.061600	0.369900	0.05020	98.00	0.00	0.00	0.00000	0.000	1	0.00	0.00	16.96	1.12	-16.79	-5.28	0	0	0	0
1012	1087	0.049340	0.204690	0.03473	149.00	0.00	0.00	0.00000	0.000	1	0.00	0.00	-63.61	0.40	65.80	5.39	0	0	0	0
1012	1087	0.049340	0.204690	0.03473	149.00	0.00	0.00	0.00000	0.000	1	0.00	0.00	-63.61	0.40	65.80	5.39	0	0	0	0
1012	1087	0.049340	0.204690	0.03473	149.00	0.00	0.00	0.00000	0.000	1	0.00	0.00	-63.61	0.40	65.80	5.39	0	0	0	0
3051	1012	0.057100	0.249770	0.03804	149.00	0.00	0.00	0.00000	0.000	1	0.00	0.00	-59.88	5.12	62.32	2.20	0	0	0	0
3051	1012	0.057100	0.249770	0.03804	149.00	0.00	0.00	0.00000	0.000	1	0.00	0.00	-59.88	5.12	62.32	2.20	0	0	0	0
3051	1012	0.057100	0.249770	0.03804	149.00	0.00	0.00	0.00000	0.000	1	0.00	0.00	-59.88	5.12	62.32	2.20	0	0	0	0
1013	1031	0.045090	0.270780	0.03675	98.00	0.00	0.00	0.00000	0.000	1	0.00	0.00	-50.08	6.09	51.26	-2.66	0	0	0	0
1013	1031	0.045090	0.270780	0.03675	98.00	0.00	0.00	0.00000	0.000	1	0.00	0.00	-50.08	6.09	51.26	-2.66	0	0	0	0
1013	1031	0.045090	0.270780	0.03675	98.00	0.00	0.00	0.00000	0.000	1	0.00	0.00	-50.08	6.09	51.26	-2.66	0	0	0	0
1047	1013	0.009470	0.061170	0.01167	221.00	0.00	0.00	0.00000	0.000	1	0.00	0.00	-106.95	19.06	108.09	-12.84	0	0	0	0
1086	1013	0.079000	0.193110	0.02529	98.00	0.00	0.00	0.00000	0.000	1	0.00	0.00	-4.03	11.49	4.17	-13.69	0	0	0	0
1014	1047	0.035660	0.147940	0.02510	149.00	0.00	0.00	0.00000	0.000	1	0.00	0.00	63.15	-13.02	-61.65	16.77	0	0	0	0
1014	1047	0.035660	0.147940	0.02510	149.00	0.00	0.00	0.00000	0.000	1	0.00	0.00	63.15	-13.02	-61.65	16.77	0	0	0	0
1014	1083	0.041050	0.182930	0.02682	149.00	0.00	0.00	0.00000	0.000	1	0.00	0.00	-64.59	12.71	66.42	-7.23	0	0	0	0
1014	1083	0.041050	0.182930	0.02682	149.00	0.00	0.00	0.00000	0.000	1	0.00	0.00	-64.59	12.71	66.42	-7.23	0	0	0	0
1016	1034	0.018280	0.109760	0.01489	98.00	0.00	0.00	0.00000	0.000	1	0.00	0.00	52.87	-7.09	-52.35	8.72	0	0	0	0
1016	1034	0.018280	0.109760	0.01489	98.00	0.00	0.00	0.00000	0.000	1	0.00	0.00	52.87	-7.09	-52.35	8.72	0	0	0	0
1016	1034	0.018280	0.109760	0.01489	98.00	0.00	0.00	0.00000	0.000	1	0.00	0.00	52.87	-7.09	-52.35	8.72	0	0	0	0
1016	1034	0.018280	0.109760	0.01489	98.00	0.00	0.00	0.00000	0.000	1	0.00	0.00	52.87	-7.09	-52.35	8.72	0	0	0	0
1016	1034	0.018280	0.109760	0.01489	98.00	0.00	0.00	0.00000	0.000	1	0.00	0.00	52.87	-7.09	-52.35	8.72	0	0	0	0
1016	1034	0.018280	0.109760	0.01489	98.00	0.00	0.00	0.00000	0.000	1	0.00	0.00	52.87	-7.09	-52.35	8.72	0	0	0	0
1016	1034	0.018280	0.109760	0.01489	98.00	0.00	0.00	0.00000	0.000	1	0.00	0.00	52.87	-7.09	-52.35	8.72	0	0	0	0
1016	1034	0.018280	0.109760	0.01489	98.00	0.00	0.00	0.00000	0.000	1	0.00	0.00	52.87	-7.09	-52.35	8.72	0	0	0	0
1016	1034	0.018280	0.109760	0.01489	98.00	0.00	0.00	0.00000	0.000	1	0.00	0.00	52.87	-7.09	-52.35	8.72	0	0	0	0
1016	1034	0.018280	0.109760	0.01489	98.00	0.00	0.00	0.00000	0.000	1	0.00	0.00	52.87	-7.09	-52.35	8.72	0	0	0	0
1068	1016	0.027730	0.158370	0.02380	98.00	0.00	0.00	0.00000	0.000	1	0.00	0.00	-41.50	-8.96	42.02	9.62	0	0	0	0
1018	1017	0.032270	0.078870	0.01033	98.00	0.00	0.00	0.00000	0.000	1	0.00	0.00	30.63	0.66	-30.32	-0.90	0	0	0	0
1018	1017	0.032270	0.078870	0.01033	98.00	0.00	0.00	0.00000	0.000	1	0.00	0.00	30.63	0.66	-30.32	-0.90	0	0	0	0
1018	1017	0.032270	0.078870	0.01033	98.00	0.00	0.00	0.00000	0.000	1	0.00	0.00	30.63	0.66	-30.32	-0.90	0	0	0	0
1017	1029	0.032440	0.141880	0.02161	149.00	0.00	0.00	0.00000	0.000	1	0.00	0.00	-11.06	-14.07	11.16	12.39	0	0	0	0
1037	1017	0.007520	0.033520	0.00491	221.00	0.00	0.00	0.00000	0.000	1	0.00	0.00	-98.22	10.62	99.00	-7.62	0	0	0	0
1037	1017	0.007520	0.033520	0.00491	221.00	0.00	0.00	0.00000	0.000	1	0.00	0.00	-98.22	10.62	99.00	-7.62	0	0	0	0
1037	1017	0.007520	0.033520	0.00491	221.00	0.00	0.00	0.00000	0.000	1	0.00	0.00	-98.22	10.62	99.00	-7.62	0	0	0	0
1037	1017	0.007520	0.033520	0.00491	221.00	0.00	0.00	0.00000	0.000	1	0.00	0.00	-98.22	10.62	99.00	-7.62	0	0	0	0
1047	1017	0.036000	0.156000	0.02400	150.00	0.00	0.00	0.00000	0.000	1	0.00	0.00	65.12	-3.99	-63.57	8.41	0	0	0	0
1047	1017	0.036000	0.156000	0.02400	150.00	0.00	0.00	0.00000	0.000	1	0.00	0.00	65.12	-3.99	-63.57	8.41	0	0	0	0
1047	1017	0.036000	0.156000	0.02400	150.00	0.00	0.00	0.00000	0.000	1	0.00	0.00	65.12	-3.99	-63.57	8.41	0	0	0	0
1047	1017	0.036000	0.156000	0.02400	150.00	0.00	0.00	0.00000	0.000	1	0.00	0.00	65.12	-3.99	-63.57	8.41	0	0	0	0
1047	1017	0.036000	0.156000	0.02400	150.00	0.00	0.00	0.00000	0.000	1	0.00	0.00	65.12	-3.99	-63.57	8.41	0	0	0	0
1024	1018	0.010940	0.065720	0.00892	98.00	0.00	0.00	0.00000	0.000	1	0.00	0.00	30.76	0.42	-30.66	-0.67	0	0	0	0
1024	1018	0.010940	0.065720	0.00892	98.00	0.00	0.00	0.00000	0.000	1	0.00	0.00	30.76	0.42	-30.66	-0.67	0	0	0	0
1024	1018	0.010940	0.065720	0.00892	98.00	0.00	0.00	0.00000	0.000	1	0.00	0.00	30.76	0.42	-30.66	-0.67	0	0	0	0
1019	1040	0.049780	0.206510	0.03504	149.00	0.00	0.00	0.00000	0.000	1	0.00	0.00	-68.13	11.40	70.61	-4.52	0	0	0	0
1019	1040	0.049780	0.206510	0.03504	149.00	0.00	0.00	0.00000	0.000	1	0.00	0.00	-68.13	11.40	70.61	-4.52	0	0	0	0
1019	1040	0.049780	0.206510	0.03504	149.00	0.00	0.00	0.00000	0.000	1	0.00	0.00	-68.13	11.40	70.61	-4.52	0	0	0	0
1019	1040	0.049780	0.206510	0.03504	149.00	0.00	0.00	0.00000	0.000	1	0.00	0.00	-68.13	11.40	70.61	-4.52	0	0	0	0
1019	1040	0.049780	0.206510	0.03504	149.00	0.00	0.00	0.00000	0.000	1	0.00	0.00	-68.13	11.40	70.61	-4.52	0	0	0	0
1019	1040	0.049780	0.206510	0.03504	149.00	0.00	0.00	0.00000	0.000	1	0.00	0.00	-68.13	11.40	70.61	-4.52	0	0	0	0
1019	1040	0.049780	0.206510	0.03504	149.00	0.00	0.00	0.00000	0.000	1	0.00	0.00	-68.13	11.40	70.61	-4.52	0	0	0	0
1019	1045	0.015220	0.037200	0.00487	221.00	0.00	0.00	0.00000	0.000	1	0.00	0.00	72.23	14.16	-71.37	-12.53	0	0	0	0
1019	1045	0.015220	0.037200	0.00487	221.00	0.00	0.00	0.00000	0.000	1	0.00	0.00	72.23	14.16	-71.37	-12.53	0	0	0	0
1019	1071	0.004400	0.028000	0.00540	225.00	0.00	0.00	0.00000	0.000	1	0.00	0.00	108.78	1.33	-108.24	1.59	0	0	0	0
1071	1019	0.004400	0.028000	0.00540	225.00	0.00	0.00	0.00000	0.000	1	0.00	0.00	-108.24	1.59	108.78	1.33	0	0	0	0
1071	1019	0.004400	0.028000	0.00540	225.00	0.00	0.00	0.00000	0.000	1	0.00	0.00	-108.24	1.59	108.78	1.33	0	0	0	0
1019	1084	0.030000	0.160000	0.02500	220.00	0.00	0.00	0.00000	0.000	1	0.00	0.00	-74.22	8.18	75.97	-1.34	0	0	0	0
1019	1084	0.030000	0.160000	0.02500	220.00	0.00	0.00	0.00000	0.000	0	0.00	0.00	0.00	0.00	0.00	0.00	0	0	0	0
1021	1020	0.003270	0.078120	0.00000	250.00	0.00	0.00	1.00000	0.000	1	0.00	0.00	74.82	10.12	-74.63	-5.67	0	0	0	0
1021	1020	0.003270	0.078120	0.00000	250.00	0.00	0.00	1.00000	0.000	1	0.00	0.00	74.82	10.12	-74.63	-5.67	0	0	0	0
1025	1020	0.008280	0.034340	0.00583	149.00	0.00	0.00	0.00000	0.000	1	0.00	0.00	75.92	-13.03	-75.43	14.53	0	0	0	0
1025	1020	0.008280	0.034340	0.00583	149.00	0.00	0.00	0.00000	0.000	1	0.00	0.00	75.92	-13.03	-75.43	14.53	0	0	0	0
1025	1020	0.008280	0.034340	0.00583	149.00	0.00	0.00	0.00000	0.000	1	0.00	0.00	75.92	-13.03	-75.43	14.53	0	0	0	0
1025	1020	0.008280	0.034340	0.00583	149.00	0.00	0.00	0.00000	0.000	1	0.00	0.00	75.92	-13.03	-75.43	14.53	0	0	0	0
...